(PID.TID 0000.0001) 
(PID.TID 0000.0001) // ======================================================
(PID.TID 0000.0001) //                      MITgcm UV
(PID.TID 0000.0001) //                      =========
(PID.TID 0000.0001) // ======================================================
(PID.TID 0000.0001) // execution environment starting up...
(PID.TID 0000.0001) 
(PID.TID 0000.0001) // MITgcmUV version:  checkpoint66g
(PID.TID 0000.0001) // Build user:        dannes1
(PID.TID 0000.0001) // Build host:        eslogin003
(PID.TID 0000.0001) // Build date:        Tue Dec 15 10:04:55 GMT 2020
(PID.TID 0000.0001) 
(PID.TID 0000.0001) // =======================================================
(PID.TID 0000.0001) // Execution Environment parameter file "eedata"
(PID.TID 0000.0001) // =======================================================
(PID.TID 0000.0001) ># Example "eedata" file
(PID.TID 0000.0001) ># Lines beginning "#" are comments
(PID.TID 0000.0001) ># nTx - No. threads per process in X
(PID.TID 0000.0001) ># nTy - No. threads per process in Y
(PID.TID 0000.0001) > &EEPARMS
(PID.TID 0000.0001) > debugMode=.FALSE.,
(PID.TID 0000.0001) > useCubedSphereExchange=.TRUE.,
(PID.TID 0000.0001) > nTx=1,
(PID.TID 0000.0001) > nTy=1,
(PID.TID 0000.0001) > /
(PID.TID 0000.0001) ># Note: Some systems use & as the
(PID.TID 0000.0001) ># namelist terminator. Other systems
(PID.TID 0000.0001) ># use a / character (as shown here).
(PID.TID 0000.0001) 
(PID.TID 0000.0001) // =======================================================
(PID.TID 0000.0001) // Computational Grid Specification ( see files "SIZE.h" )
(PID.TID 0000.0001) //                                  ( and "eedata"       )
(PID.TID 0000.0001) // =======================================================
(PID.TID 0000.0001)      nPx =  360 ; /* No. processes in X */
(PID.TID 0000.0001)      nPy =    1 ; /* No. processes in Y */
(PID.TID 0000.0001)      nSx =    1 ; /* No. tiles in X per process */
(PID.TID 0000.0001)      nSy =    1 ; /* No. tiles in Y per process */
(PID.TID 0000.0001)      sNx =   15 ; /* Tile size in X */
(PID.TID 0000.0001)      sNy =   15 ; /* Tile size in Y */
(PID.TID 0000.0001)      OLx =    4 ; /* Tile overlap distance in X */
(PID.TID 0000.0001)      OLy =    4 ; /* Tile overlap distance in Y */
(PID.TID 0000.0001)      nTx =    1 ; /* No. threads in X per process */
(PID.TID 0000.0001)      nTy =    1 ; /* No. threads in Y per process */
(PID.TID 0000.0001)       Nr =   50 ; /* No. levels in the vertical   */
(PID.TID 0000.0001)       Nx = 5400 ; /* Total domain size in X ( = nPx*nSx*sNx ) */
(PID.TID 0000.0001)       Ny =   15 ; /* Total domain size in Y ( = nPy*nSy*sNy ) */
(PID.TID 0000.0001)   nTiles =    1 ; /* Total no. tiles per process ( = nSx*nSy ) */
(PID.TID 0000.0001)   nProcs =  360 ; /* Total no. processes ( = nPx*nPy ) */
(PID.TID 0000.0001) nThreads =    1 ; /* Total no. threads per process ( = nTx*nTy ) */
(PID.TID 0000.0001) usingMPI =    T ; /* Flag used to control whether MPI is in use */
(PID.TID 0000.0001)                   /*  note: To execute a program with MPI calls */
(PID.TID 0000.0001)                   /*  it must be launched appropriately e.g     */
(PID.TID 0000.0001)                   /*  "mpirun -np 64 ......"                    */
(PID.TID 0000.0001) useCoupler=    F ;/* Flag used to control communications with   */
(PID.TID 0000.0001)                   /*  other model components, through a coupler */
(PID.TID 0000.0001) debugMode =    F ; /* print debug msg. (sequence of S/R calls)  */
(PID.TID 0000.0001) printMapIncludesZeros=    F ; /* print zeros in Std.Output maps */
(PID.TID 0000.0001) maxLengthPrt1D=   65 /* maxLength of 1D array printed to StdOut */
(PID.TID 0000.0001) 
(PID.TID 0000.0001) ======= Starting MPI parallel Run =========
(PID.TID 0000.0001)  My Processor Name (len:  8 ) = nid01845
(PID.TID 0000.0001)  Located at (  0,  0) on processor grid (0:359,0:  0)
(PID.TID 0000.0001)  Origin at  (     1,     1) on global grid (1:  5400,1:    15)
(PID.TID 0000.0001)  North neighbor = processor 0000
(PID.TID 0000.0001)  South neighbor = processor 0000
(PID.TID 0000.0001)   East neighbor = processor 0001
(PID.TID 0000.0001)   West neighbor = processor 0359
(PID.TID 0000.0001) // ======================================================
(PID.TID 0000.0001) // Mapping of tiles to threads
(PID.TID 0000.0001) // ======================================================
(PID.TID 0000.0001) // -o- Thread   1, tiles (   1:   1,   1:   1)
(PID.TID 0000.0001) 
(PID.TID 0000.0001) W2_READPARMS: opening data.exch2
(PID.TID 0000.0001)  OPEN_COPY_DATA_FILE: opening file data.exch2
(PID.TID 0000.0001) // =======================================================
(PID.TID 0000.0001) // Parameter file "data.exch2"
(PID.TID 0000.0001) // =======================================================
(PID.TID 0000.0001) ># EXCH2 Package: Wrapper-2 User Choice
(PID.TID 0000.0001) >#--------------------
(PID.TID 0000.0001) >#  preDefTopol   :: pre-defined Topology selector:
(PID.TID 0000.0001) >#                :: = 0 : topology defined from processing "data.exch2";
(PID.TID 0000.0001) >#                :: = 1 : simple, single facet topology;
(PID.TID 0000.0001) >#                :: = 2 : customized topology (w2_set_myown_facets)
(PID.TID 0000.0001) >#                :: = 3 : 6-facet Cube (3 face-dims: nRed, nGreen, nBlue).
(PID.TID 0000.0001) >#  dimsFacets    :: facet pair of dimensions (n1x,n1y, n2x,n2y ...)
(PID.TID 0000.0001) >#  facetEdgeLink :: Face-Edge connectivity map:
(PID.TID 0000.0001) >#    facetEdgeLink(i,j)=XX.1 : face(j)-edge(i) (i=1,2,3,4 <==> N,S,E,W)
(PID.TID 0000.0001) >#    is connected to Northern edge of face "XX" ; similarly,
(PID.TID 0000.0001) >#    = XX.2 : to Southern.E, XX.3 = Eastern.E, XX.4 = Western.E of face "XX"
(PID.TID 0000.0001) >#  blankList     :: List of "blank" tiles
(PID.TID 0000.0001) >#  W2_mapIO      :: global map IO selector (-1 = old type ; 0 = 1 long line in X
(PID.TID 0000.0001) >#                :: 1 = compact, mostly in Y dir)
(PID.TID 0000.0001) >#  W2_printMsg   :: option for information messages printing
(PID.TID 0000.0001) >#                :: <0 : write to log file ; =0 : minimum print ;
(PID.TID 0000.0001) >#                :: =1 : no duplicated print ; =2 : all processes do print
(PID.TID 0000.0001) >#--------------------
(PID.TID 0000.0001) > &W2_EXCH2_PARM01
(PID.TID 0000.0001) >  W2_printMsg= 0,
(PID.TID 0000.0001) >  W2_mapIO   = 1,
(PID.TID 0000.0001) >#
(PID.TID 0000.0001) >  preDefTopol=0,
(PID.TID 0000.0001) >#-- 5 facets llc_120 topology (drop facet 6 and its connection):
(PID.TID 0000.0001) >  dimsFacets(1:10) = 90, 270, 90, 270, 90, 90, 270, 90, 270, 90,
(PID.TID 0000.0001) >  facetEdgeLink(1:4,1)= 3.4, 0. , 2.4, 5.1,
(PID.TID 0000.0001) >  facetEdgeLink(1:4,2)= 3.2, 0. , 4.2, 1.3,
(PID.TID 0000.0001) >  facetEdgeLink(1:4,3)= 5.4, 2.1, 4.4, 1.1,
(PID.TID 0000.0001) >  facetEdgeLink(1:4,4)= 5.2, 2.3, 0. , 3.3,
(PID.TID 0000.0001) >  facetEdgeLink(1:4,5)= 1.4, 4.1, 0. , 3.1,
(PID.TID 0000.0001) >#-- full 6 facets llc_120 topology (equivalent to default preDefTopol=3):
(PID.TID 0000.0001) ># dimsFacets(1:12) = 120, 360, 120, 360, 120, 120, 360, 120, 360, 120, 120, 120,
(PID.TID 0000.0001) ># facetEdgeLink(1:4,1)= 3.4, 6.1, 2.4, 5.1,
(PID.TID 0000.0001) ># facetEdgeLink(1:4,2)= 3.2, 6.3, 4.2, 1.3,
(PID.TID 0000.0001) ># facetEdgeLink(1:4,3)= 5.4, 2.1, 4.4, 1.1,
(PID.TID 0000.0001) ># facetEdgeLink(1:4,4)= 5.2, 2.3, 6.2, 3.3,
(PID.TID 0000.0001) ># facetEdgeLink(1:4,5)= 1.4, 4.1, 6.4, 3.1,
(PID.TID 0000.0001) ># facetEdgeLink(1:4,6)= 1.2, 4.3, 2.2, 5.3,
(PID.TID 0000.0001) >#
(PID.TID 0000.0001) >#90x30   nprocs = 36
(PID.TID 0000.0001) >#  blankList(1:3)=1,10,11,
(PID.TID 0000.0001) >#30x90
(PID.TID 0000.0001) >#
(PID.TID 0000.0001) >#45x30   nprocs = 72
(PID.TID 0000.0001) >#  blankList(1:6)=1,2,19,20,21,22
(PID.TID 0000.0001) >#old:  blankList(1:8)=1,2,19,20,21,22,33,72
(PID.TID 0000.0001) >#30x45   nprocs = 68
(PID.TID 0000.0001) >#  blankList(1:10)=2,3,19,20,21,35,51,60,69,78
(PID.TID 0000.0001) >#45x45   nprocs = 48
(PID.TID 0000.0001) >#  blankList(1:4)=2,13,14,23
(PID.TID 0000.0001) >#old:  blankList(1:3)=2,13,14
(PID.TID 0000.0001) >#30x30   nprocs = 96
(PID.TID 0000.0001) ># blankList(1:21)=1,2,3,5,6,28,29,30,31,32,33,49,50,52,53,72,81,90,99,108,117
(PID.TID 0000.0001) >#old:   blankList(1:18)=1,2,3,28,29,30,31,32,33,49,50,53,72,81,90,99,108,117
(PID.TID 0000.0001) >#15x30   nprocs = 192
(PID.TID 0000.0001) >#  blankList(1:42)=1,2,3,4,5,6,9,10,11,12,55,56,57,58,59,60,61,62,63,64,65,66,
(PID.TID 0000.0001) >#            97,98,99,100,103,104,105,106,143,144,
(PID.TID 0000.0001) >#            161,162,179,180,197,198,215,216,233,234
(PID.TID 0000.0001) >#15x15   nprocs = 360
(PID.TID 0000.0001) >   blankList(1:108)=1,2,3,4,5,6,7,8,9,10,11,12,14,15,16,17,18,21,22,23,24,
(PID.TID 0000.0001) >   65,71,75,76,90,95,96,101,102,109,110,111,112,113,114,115,116,117,118,119,
(PID.TID 0000.0001) >   120,121,122,123,124,125,126,127,128,129,130,131,132,
(PID.TID 0000.0001) >   188,189,190,193,194,195,196,199,
(PID.TID 0000.0001) >   200,201,202,203,205,206,207,208,209,211,212,213,214,215,216,242,247,253,
(PID.TID 0000.0001) >   267,268,269,270,287,288,305,306,323,324,341,342,359,360,362,376,377,378,
(PID.TID 0000.0001) >   380,381,382,395,396,400,412,413,414,430,
(PID.TID 0000.0001) >#
(PID.TID 0000.0001) > /
(PID.TID 0000.0001) 
(PID.TID 0000.0001) W2_READPARMS: finished reading data.exch2
(PID.TID 0000.0001) W2_useE2ioLayOut=    T ;/* T: use Exch2 glob IO map; F: use model default */
(PID.TID 0000.0001) W2_mapIO        =   1 ; /* select option for Exch2 global-IO map */
(PID.TID 0000.0001) W2_printMsg     =   0 ; /* select option for printing information */
(PID.TID 0000.0001) ===== Start setting W2 TOPOLOGY:
(PID.TID 0000.0001) W2_E2SETUP: number of Active Tiles =     360
(PID.TID 0000.0001) W2_E2SETUP: number of Blank Tiles  =     108
(PID.TID 0000.0001) W2_E2SETUP: Total number of Tiles  =     468
(PID.TID 0000.0001) W2_SET_GEN_FACETS: preDefTopol=  0 selected
(PID.TID 0000.0001) W2_SET_GEN_FACETS: Number of facets =  5 (inferred from "dimsFacets")
(PID.TID 0000.0001) W2_E2SETUP: Total number of Facets =       5
(PID.TID 0000.0001) W2_SET_F2F_INDEX: index matrix for connected Facet-Edges:
(PID.TID 0000.0001) ** WARNING ** S.Edge of facet #  1 disconnected (facet_link=  0.00)
(PID.TID 0000.0001) ** WARNING ** S.Edge of facet #  2 disconnected (facet_link=  0.00)
(PID.TID 0000.0001) ** WARNING ** E.Edge of facet #  4 disconnected (facet_link=  0.00)
(PID.TID 0000.0001) ** WARNING ** E.Edge of facet #  5 disconnected (facet_link=  0.00)
(PID.TID 0000.0001) W2_SET_MAP_TILES: tile mapping within facet and global Map:
(PID.TID 0000.0001)  W2_mapIO =   90 (=    6*sNx)
(PID.TID 0000.0001)  Global Map (IO): X-size=      90 , Y-size=    1170
(PID.TID 0000.0001) W2_SET_MAP_TILES: tile offset within facet and global Map:
- facet  1 : X-size=    90 , Y-size=   270 ;  108 tiles (Tx,Ty=   6,  18)
- facet  2 : X-size=    90 , Y-size=   270 ;  108 tiles (Tx,Ty=   6,  18)
- facet  3 : X-size=    90 , Y-size=    90 ;   36 tiles (Tx,Ty=   6,   6)
- facet  4 : X-size=   270 , Y-size=    90 ;  108 tiles (Tx,Ty=  18,   6)
- facet  5 : X-size=   270 , Y-size=    90 ;  108 tiles (Tx,Ty=  18,   6)
(PID.TID 0000.0001) W2_SET_MAP_CUMSUM: setting Facet Matrix for CUMUL-SUM
(PID.TID 0000.0001) W2_SET_MAP_CUMSUM: set    4 /   5 active facets (pass,type=   1, 1)
 Facet Matrix for CUMUL-SUM (nFacets=   5, nActive=   5 ):
- facet  1 :  0  0 ,  0  0 ,  0  0 ,  0  0 ,  0  0 ,
- facet  2 :  1  0 ,  0  0 ,  0  0 ,  0  0 ,  0  0 ,
- facet  3 :  1  0 ,  0  1 ,  0  0 ,  0  0 ,  0  0 ,
- facet  4 :  1  0 ,  0  1 ,  1  0 ,  0  0 ,  0  0 ,
- facet  5 :  1  0 ,  0  1 ,  1  0 ,  0  1 ,  0  0 ,
 missing-corner Tile for CUMUL-SUM (nTiles=   468 ): W2_tMC1=   103 , W2_tMC2=     0
(PID.TID 0000.0001) W2_SET_MAP_CUMSUM: done (skip Tile Matrix setting)
(PID.TID 0000.0001) W2_SET_TILE2TILES: tile neighbours and index connection:
(PID.TID 0000.0001) current Max.Nb.Neighbours (e.g., on tile   19 ) =  4
(PID.TID 0000.0001) ===== W2 TILE TOPOLOGY =====
(PID.TID 0000.0001)  TILE:    13 (bi,bj=   1   1 ), Nb of Neighbours =  2
(PID.TID 0000.0001)     NEIGHBOUR  1 = TILE   19 (n=  2) Comm = MSG (PROC=    2)
(PID.TID 0000.0001)     NEIGHBOUR  2 = TILE  466 (n=  1) Comm = MSG (PROC=  358)
(PID.TID 0000.0001) =====       setting W2 TOPOLOGY: Done
(PID.TID 0000.0001) 
(PID.TID 0000.0001)  INI_PARMS: opening model parameter file "data"
(PID.TID 0000.0001)  OPEN_COPY_DATA_FILE: opening file data
(PID.TID 0000.0001) // =======================================================
(PID.TID 0000.0001) // Parameter file "data"
(PID.TID 0000.0001) // =======================================================
(PID.TID 0000.0001) ># ====================
(PID.TID 0000.0001) ># | Model parameters |
(PID.TID 0000.0001) ># ====================
(PID.TID 0000.0001) >#
(PID.TID 0000.0001) ># Continuous equation parameters
(PID.TID 0000.0001) > &PARM01
(PID.TID 0000.0001) > tRef               = 3*23.,3*22.,21.,2*20.,19.,2*18.,17.,2*16.,15.,14.,13.,
(PID.TID 0000.0001) >                      12.,11.,2*9.,8.,7.,2*6.,2*5.,3*4.,3*3.,4*2.,12*1.,
(PID.TID 0000.0001) > sRef               = 50*34.5,
(PID.TID 0000.0001) > no_slip_sides  = .TRUE.,
(PID.TID 0000.0001) > no_slip_bottom = .TRUE.,
(PID.TID 0000.0001) >#
(PID.TID 0000.0001) > viscAr=0.5E-4,
(PID.TID 0000.0001) >#
(PID.TID 0000.0001) > viscAh=1.E0,
(PID.TID 0000.0001) > viscAhGrid=2.E-2,
(PID.TID 0000.0001) ># viscAh=2.0e4,
(PID.TID 0000.0001) >#
(PID.TID 0000.0001) > diffKhT=1.E1,
(PID.TID 0000.0001) > diffKrT=1.E-5,
(PID.TID 0000.0001) > diffKhS=1.E1,
(PID.TID 0000.0001) > diffKrS=1.E-5,
(PID.TID 0000.0001) >#
(PID.TID 0000.0001) >### diffKrBL79surf=0.1E-4,
(PID.TID 0000.0001) >### diffKrBL79deep=1.0E-4,
(PID.TID 0000.0001) > bottomDragQuadratic = 0.001,
(PID.TID 0000.0001) >#when using ggl90
(PID.TID 0000.0001) > ivdc_kappa=10.,
(PID.TID 0000.0001) > implicitDiffusion=.TRUE.,
(PID.TID 0000.0001) > implicitViscosity=.TRUE.,
(PID.TID 0000.0001) > useRealFreshWaterFlux=.TRUE.,
(PID.TID 0000.0001) ># balanceThetaClimRelax=.TRUE.,
(PID.TID 0000.0001) > balanceSaltClimRelax=.TRUE.,
(PID.TID 0000.0001) ># balanceEmPmR=.TRUE.,
(PID.TID 0000.0001) ># balanceQnet=.TRUE.,
(PID.TID 0000.0001) > allowFreezing=.FALSE.,
(PID.TID 0000.0001) >### hFacInf=0.2,
(PID.TID 0000.0001) >### hFacSup=2.0,
(PID.TID 0000.0001) > hFacMin=.2,
(PID.TID 0000.0001) > hFacMinDr=5.,
(PID.TID 0000.0001) > select_rStar=2,
(PID.TID 0000.0001) > nonlinFreeSurf=4,
(PID.TID 0000.0001) > gravity=9.81,
(PID.TID 0000.0001) > rhonil=1029.,
(PID.TID 0000.0001) > rhoConst=1029.,
(PID.TID 0000.0001) > rhoConstFresh=1000.,
(PID.TID 0000.0001) > convertFW2Salt=-1.,
(PID.TID 0000.0001) > eosType='JMD95Z',
(PID.TID 0000.0001) > implicitFreeSurface=.TRUE.,
(PID.TID 0000.0001) > exactConserv=.TRUE.,
(PID.TID 0000.0001) > useSingleCpuIO=.TRUE.,
(PID.TID 0000.0001) > tempAdvScheme=30,
(PID.TID 0000.0001) > saltAdvScheme=30,
(PID.TID 0000.0001) > tempVertAdvScheme=3,
(PID.TID 0000.0001) > saltVertAdvScheme=3,
(PID.TID 0000.0001) > tempImplVertAdv=.TRUE.,
(PID.TID 0000.0001) > saltImplVertAdv=.TRUE.,
(PID.TID 0000.0001) > staggerTimeStep=.TRUE.,
(PID.TID 0000.0001) > vectorInvariantMomentum=.TRUE.,
(PID.TID 0000.0001) >#when using the cd scheme:
(PID.TID 0000.0001) ># useCDscheme=.TRUE.,
(PID.TID 0000.0001) > useJamartWetPoints=.TRUE.,
(PID.TID 0000.0001) > readBinaryPrec=32,
(PID.TID 0000.0001) > writeBinaryPrec=32,
(PID.TID 0000.0001) > debugLevel=1,
(PID.TID 0000.0001) > /
(PID.TID 0000.0001) >
(PID.TID 0000.0001) ># Elliptic solver parameters
(PID.TID 0000.0001) > &PARM02
(PID.TID 0000.0001) > cg2dMaxIters=300,
(PID.TID 0000.0001) >#cg2dTargetResWunit=1.E-12,
(PID.TID 0000.0001) > /
(PID.TID 0000.0001) >
(PID.TID 0000.0001) ># Time stepping parameters
(PID.TID 0000.0001) > &PARM03
(PID.TID 0000.0001) > nIter0=1,
(PID.TID 0000.0001) >#2 lev2 for testing:
(PID.TID 0000.0001) >#nTimeSteps=8,
(PID.TID 0000.0001) >#3month
(PID.TID 0000.0001) >#nTimeSteps=2160,
(PID.TID 0000.0001) >#18month
(PID.TID 0000.0001) > nTimeSteps=13110,
(PID.TID 0000.0001) >#2yr
(PID.TID 0000.0001) >#nTimeSteps=17520,
(PID.TID 0000.0001) >#4-yr from 2014 to 2017, inclusive
(PID.TID 0000.0001) >#nTimeSteps=35051,
(PID.TID 0000.0001) >#20y:
(PID.TID 0000.0001) >#nTimeSteps=175295,
(PID.TID 0000.0001) >#22y:
(PID.TID 0000.0001) >#nTimeSteps=192839,
(PID.TID 0000.0001) >#24y:
(PID.TID 0000.0001) >#nTimeSteps=210359,
(PID.TID 0000.0001) >#26yr
(PID.TID 0000.0001) >#nTimeSteps=227903,
(PID.TID 0000.0001) >#60 years
(PID.TID 0000.0001) >#nTimeSteps=525985,
(PID.TID 0000.0001) >#
(PID.TID 0000.0001) > forcing_In_AB=.FALSE.,
(PID.TID 0000.0001) > momDissip_In_AB=.FALSE.,
(PID.TID 0000.0001) >#when using the cd scheme:
(PID.TID 0000.0001) ># epsAB_CD = 0.25,
(PID.TID 0000.0001) ># tauCD=172800.0,
(PID.TID 0000.0001) > deltaTmom   =3600.,
(PID.TID 0000.0001) > deltaTtracer=3600.,
(PID.TID 0000.0001) > deltaTfreesurf=3600.,
(PID.TID 0000.0001) > deltaTClock =3600.,
(PID.TID 0000.0001) >#when using ab2:
(PID.TID 0000.0001) ># abEps = 0.1,
(PID.TID 0000.0001) >#when using ab3:
(PID.TID 0000.0001) > doAB_onGtGs=.FALSE.,
(PID.TID 0000.0001) > alph_AB=0.5,
(PID.TID 0000.0001) > beta_AB=0.281105,
(PID.TID 0000.0001) >#
(PID.TID 0000.0001) > pChkptFreq  =31536000.0,
(PID.TID 0000.0001) > chkptFreq   =31536000.0,
(PID.TID 0000.0001) ># taveFreq    =31536000.0,
(PID.TID 0000.0001) ># dumpFreq    =31536000.0,
(PID.TID 0000.0001) ># monitorFreq = 7200.0,
(PID.TID 0000.0001) > monitorFreq = 6307200.0,
(PID.TID 0000.0001) > dumpInitAndLast = .TRUE.,
(PID.TID 0000.0001) > adjDumpFreq = 31536000.0,
(PID.TID 0000.0001) >#adjDumpFreq = 604800.0,
(PID.TID 0000.0001) > adjMonitorFreq = 864000.0,
(PID.TID 0000.0001) > pickupStrictlyMatch=.FALSE.,
(PID.TID 0000.0001) > /
(PID.TID 0000.0001) >
(PID.TID 0000.0001) ># Gridding parameters
(PID.TID 0000.0001) > &PARM04
(PID.TID 0000.0001) > usingCurvilinearGrid=.TRUE.,
(PID.TID 0000.0001) > delR =
(PID.TID 0000.0001) >     10.00, 10.00, 10.00, 10.00, 10.00, 10.00, 10.00, 10.01,
(PID.TID 0000.0001) >     10.03, 10.11, 10.32, 10.80, 11.76, 13.42, 16.04, 19.82, 24.85,
(PID.TID 0000.0001) >     31.10, 38.42, 46.50, 55.00, 63.50, 71.58, 78.90, 85.15, 90.18,
(PID.TID 0000.0001) >     93.96, 96.58, 98.25, 99.25,100.01,101.33,104.56,111.33,122.83,
(PID.TID 0000.0001) >     139.09,158.94,180.83,203.55,226.50,249.50,272.50,295.50,318.50,
(PID.TID 0000.0001) >     341.50,364.50,387.50,410.50,433.50,456.50,
(PID.TID 0000.0001) > /
(PID.TID 0000.0001) >
(PID.TID 0000.0001) ># Input datasets
(PID.TID 0000.0001) > &PARM05
(PID.TID 0000.0001) > diffKrFile='total_diffkr_r009bit11.bin',
(PID.TID 0000.0001) > adTapeDir='tapes',
(PID.TID 0000.0001) >#bathyFile      ='bathy_eccollc_90x50.bin',
(PID.TID 0000.0001) > bathyFile      ='bathy_eccollc_90x50_min2pts.bin',
(PID.TID 0000.0001) > hydrogThetaFile='T_OWPv1_M_eccollc_90x50.bin',
(PID.TID 0000.0001) > hydrogSaltFile ='S_OWPv1_M_eccollc_90x50.bin',
(PID.TID 0000.0001) > viscA4Dfile    ='fenty_biharmonic_visc_v11.bin',
(PID.TID 0000.0001) > viscA4Zfile    ='fenty_biharmonic_visc_v11.bin',
(PID.TID 0000.0001) > geothermalFile='geothermalFlux.bin',
(PID.TID 0000.0001) >#
(PID.TID 0000.0001) > /
(PID.TID 0000.0001) 
(PID.TID 0000.0001)  INI_PARMS ; starts to read PARM01
(PID.TID 0000.0001)  INI_PARMS ; read PARM01 : OK
(PID.TID 0000.0001)  INI_PARMS ; starts to read PARM02
(PID.TID 0000.0001)  INI_PARMS ; read PARM02 : OK
(PID.TID 0000.0001)  INI_PARMS ; starts to read PARM03
(PID.TID 0000.0001)  INI_PARMS ; read PARM03 : OK
(PID.TID 0000.0001)  INI_PARMS ; starts to read PARM04
(PID.TID 0000.0001)  INI_PARMS ; read PARM04 : OK
(PID.TID 0000.0001)  INI_PARMS ; starts to read PARM05
(PID.TID 0000.0001)  INI_PARMS ; read PARM05 : OK
(PID.TID 0000.0001)  INI_PARMS: finished reading file "data"
(PID.TID 0000.0001)  PACKAGES_BOOT: opening data.pkg
(PID.TID 0000.0001)  OPEN_COPY_DATA_FILE: opening file data.pkg
(PID.TID 0000.0001) // =======================================================
(PID.TID 0000.0001) // Parameter file "data.pkg"
(PID.TID 0000.0001) // =======================================================
(PID.TID 0000.0001) ># Packages
(PID.TID 0000.0001) > &PACKAGES
(PID.TID 0000.0001) > useEXF   = .TRUE.,
(PID.TID 0000.0001) >#useRBCS  = .TRUE.,
(PID.TID 0000.0001) > useGMRedi= .TRUE.,
(PID.TID 0000.0001) ># useKPP   = .TRUE.,
(PID.TID 0000.0001) > useSBO   = .TRUE.,
(PID.TID 0000.0001) >#useMNC   = .TRUE.,
(PID.TID 0000.0001) > useSeaice= .TRUE.,
(PID.TID 0000.0001) > useGGL90=.TRUE.,
(PID.TID 0000.0001) > useSALT_PlUME=.TRUE.,
(PID.TID 0000.0001) ># useDOWN_SLOPE=.TRUE.,
(PID.TID 0000.0001) > useDiagnostics=.TRUE.,
(PID.TID 0000.0001) > useECCO=.TRUE.,
(PID.TID 0000.0001) > useCTRL=.TRUE.,
(PID.TID 0000.0001) > useProfiles=.TRUE.,
(PID.TID 0000.0001) > useSMOOTH=.TRUE.,
(PID.TID 0000.0001) >#useGrdchk=.TRUE.,
(PID.TID 0000.0001) >#useLayers=.TRUE.,
(PID.TID 0000.0001) >#
(PID.TID 0000.0001) >#usePtracers=.TRUE.,
(PID.TID 0000.0001) >#useBBL=.TRUE.,
(PID.TID 0000.0001) > /
(PID.TID 0000.0001) 
(PID.TID 0000.0001)  PACKAGES_BOOT: finished reading data.pkg
(PID.TID 0000.0001)  PACKAGES_BOOT: On/Off package Summary
 --------  pkgs with a standard "usePKG" On/Off switch in "data.pkg":  --------
 pkg/ggl90                compiled   and   used ( useGGL90                 = T )
 pkg/gmredi               compiled   and   used ( useGMRedi                = T )
 pkg/cal                  compiled   and   used ( useCAL                   = T )
 pkg/exf                  compiled   and   used ( useEXF                   = T )
 pkg/autodiff             compiled   and   used ( useAUTODIFF              = T )
 pkg/grdchk               compiled but not used ( useGrdchk                = F )
 pkg/smooth               compiled   and   used ( useSMOOTH                = T )
 pkg/profiles             compiled   and   used ( usePROFILES              = T )
 pkg/ecco                 compiled   and   used ( useECCO                  = T )
 pkg/ctrl                 compiled   and   used ( useCTRL                  = T )
 pkg/sbo                  compiled   and   used ( useSBO                   = T )
 pkg/seaice               compiled   and   used ( useSEAICE                = T )
 pkg/salt_plume           compiled   and   used ( useSALT_PLUME            = T )
 pkg/diagnostics          compiled   and   used ( useDiagnostics           = T )
 -------- pkgs without standard "usePKG" On/Off switch in "data.pkg":  --------
 pkg/generic_advdiff      compiled   and   used ( useGAD                   = T )
 pkg/mom_common           compiled   and   used ( momStepping              = T )
 pkg/mom_vecinv           compiled   and   used ( +vectorInvariantMomentum = T )
 pkg/monitor              compiled   and   used ( monitorFreq > 0.         = T )
 pkg/timeave              compiled but not used ( taveFreq > 0.            = F )
 pkg/debug                compiled but not used ( debugMode                = F )
 pkg/exch2                compiled   and   used
 pkg/rw                   compiled   and   used
 pkg/mdsio                compiled   and   used
 pkg/autodiff             compiled   and   used
 pkg/cost                 compiled   and   used
(PID.TID 0000.0001)  PACKAGES_BOOT: End of package Summary
(PID.TID 0000.0001) 
(PID.TID 0000.0001) CAL_READPARMS: opening data.cal
(PID.TID 0000.0001)  OPEN_COPY_DATA_FILE: opening file data.cal
(PID.TID 0000.0001) // =======================================================
(PID.TID 0000.0001) // Parameter file "data.cal"
(PID.TID 0000.0001) // =======================================================
(PID.TID 0000.0001) >#
(PID.TID 0000.0001) ># *******************
(PID.TID 0000.0001) ># Calendar Parameters
(PID.TID 0000.0001) ># *******************
(PID.TID 0000.0001) > &CAL_NML
(PID.TID 0000.0001) > TheCalendar='gregorian',
(PID.TID 0000.0001) > calendarDumps=.TRUE.,
(PID.TID 0000.0001) ># TheCalendar='model',
(PID.TID 0000.0001) > startDate_1=19920101,
(PID.TID 0000.0001) > startDate_2=120000,
(PID.TID 0000.0001) > /
(PID.TID 0000.0001) 
(PID.TID 0000.0001) CAL_READPARMS: finished reading data.cal
(PID.TID 0000.0001) EXF_READPARMS: opening data.exf
(PID.TID 0000.0001)  OPEN_COPY_DATA_FILE: opening file data.exf
(PID.TID 0000.0001) // =======================================================
(PID.TID 0000.0001) // Parameter file "data.exf"
(PID.TID 0000.0001) // =======================================================
(PID.TID 0000.0001) ># *********************
(PID.TID 0000.0001) ># External Forcing Data
(PID.TID 0000.0001) ># *********************
(PID.TID 0000.0001) >#
(PID.TID 0000.0001) > &EXF_NML_01
(PID.TID 0000.0001) >#
(PID.TID 0000.0001) > useAtmWind        = .FALSE.,
(PID.TID 0000.0001) >#NCEP VALUES:
(PID.TID 0000.0001) ># exf_albedo        = 0.15,
(PID.TID 0000.0001) ># exf_scal_BulkCdn  = 1.015,
(PID.TID 0000.0001) >#
(PID.TID 0000.0001) >#TO COMBINE WITH ALLOW_ZENITH_ANGLE:
(PID.TID 0000.0001) > exf_albedo        = 0.1,
(PID.TID 0000.0001) > useExfZenIncoming = .TRUE.,
(PID.TID 0000.0001) > select_ZenAlbedo  = 1,
(PID.TID 0000.0001) >#
(PID.TID 0000.0001) > ocean_emissivity = 0.97,
(PID.TID 0000.0001) > ice_emissivity = 0.95,
(PID.TID 0000.0001) > snow_emissivity = 0.95,
(PID.TID 0000.0001) >#
(PID.TID 0000.0001) > exf_iprec         = 32,
(PID.TID 0000.0001) > exf_yftype        = 'RL',
(PID.TID 0000.0001) > useExfYearlyFields= .TRUE.,
(PID.TID 0000.0001) > useExfCheckRange  = .FALSE.,
(PID.TID 0000.0001) > readStressOnAgrid = .TRUE.,
(PID.TID 0000.0001) > rotateStressOnAgrid = .TRUE.,
(PID.TID 0000.0001) > /
(PID.TID 0000.0001) >#
(PID.TID 0000.0001) > &EXF_NML_02
(PID.TID 0000.0001) > ustressfile       = 'eccov4r4_ustr',
(PID.TID 0000.0001) > vstressfile       = 'eccov4r4_vstr',
(PID.TID 0000.0001) > atempfile         = 'eccov4r4_tmp2m_degC',
(PID.TID 0000.0001) > aqhfile           = 'eccov4r4_spfh2m',
(PID.TID 0000.0001) > precipfile        = 'eccov4r4_rain',
(PID.TID 0000.0001) ># uwindfile         = 'EIG_u10m',
(PID.TID 0000.0001) ># vwindfile         = 'EIG_v10m',
(PID.TID 0000.0001) > wspeedfile        = 'eccov4r4_wspeed',
(PID.TID 0000.0001) > swdownfile        = 'eccov4r4_dsw',
(PID.TID 0000.0001) > lwdownfile        = 'eccov4r4_dlw',
(PID.TID 0000.0001) > apressurefile     = 'eccov4r4_pres',
(PID.TID 0000.0001) >#
(PID.TID 0000.0001) > ustressstartdate1   = 19920101,
(PID.TID 0000.0001) > ustressstartdate2   = 030000,
(PID.TID 0000.0001) > ustressperiod       = 21600.0,
(PID.TID 0000.0001) >#
(PID.TID 0000.0001) > vstressstartdate1   = 19920101,
(PID.TID 0000.0001) > vstressstartdate2   = 030000,
(PID.TID 0000.0001) > vstressperiod       = 21600.0,
(PID.TID 0000.0001) >#
(PID.TID 0000.0001) > atempstartdate1   = 19920101,
(PID.TID 0000.0001) > atempstartdate2   = 030000,
(PID.TID 0000.0001) > atempperiod       = 21600.0,
(PID.TID 0000.0001) >#
(PID.TID 0000.0001) > aqhstartdate1     = 19920101,
(PID.TID 0000.0001) > aqhstartdate2     = 030000,
(PID.TID 0000.0001) > aqhperiod         = 21600.0,
(PID.TID 0000.0001) >#
(PID.TID 0000.0001) > precipstartdate1  = 19920101,
(PID.TID 0000.0001) > precipstartdate2  = 030000,
(PID.TID 0000.0001) > precipperiod      = 21600.0,
(PID.TID 0000.0001) >#
(PID.TID 0000.0001) > runofffile        = 'runoff-2d-Fekete-1deg-mon-V4-SMOOTH.bin',
(PID.TID 0000.0001) > runoffperiod      = -12,
(PID.TID 0000.0001) >#
(PID.TID 0000.0001) > uwindstartdate1   = 19920101,
(PID.TID 0000.0001) > uwindstartdate2   = 030000,
(PID.TID 0000.0001) > uwindperiod       = 21600.0,
(PID.TID 0000.0001) >#
(PID.TID 0000.0001) > vwindstartdate1   = 19920101,
(PID.TID 0000.0001) > vwindstartdate2   = 030000,
(PID.TID 0000.0001) > vwindperiod       = 21600.0,
(PID.TID 0000.0001) >#
(PID.TID 0000.0001) > wspeedstartdate1   = 19920101,
(PID.TID 0000.0001) > wspeedstartdate2   = 030000,
(PID.TID 0000.0001) > wspeedperiod       = 21600.0,
(PID.TID 0000.0001) >#
(PID.TID 0000.0001) > swdownstartdate1  = 19920101,
(PID.TID 0000.0001) > swdownstartdate2  = 030000,
(PID.TID 0000.0001) > swdownperiod      = 21600.0,
(PID.TID 0000.0001) >#
(PID.TID 0000.0001) > lwdownstartdate1  = 19920101,
(PID.TID 0000.0001) > lwdownstartdate2  = 030000,
(PID.TID 0000.0001) > lwdownperiod      = 21600.0,
(PID.TID 0000.0001) >#
(PID.TID 0000.0001) > apressurestartdate1   = 19920101,
(PID.TID 0000.0001) > apressurestartdate2   = 030000,
(PID.TID 0000.0001) > apressureperiod       = 21600.0,
(PID.TID 0000.0001) >#
(PID.TID 0000.0001) > climsstperiod     = -12.,
(PID.TID 0000.0001) >#climsssfile       = 'SSS_WPv1_M_eccollc_90x50.bin',
(PID.TID 0000.0001) > climsssperiod     = -12.,
(PID.TID 0000.0001) >#climsssTauRelax   = 15768000.,
(PID.TID 0000.0001) > /
(PID.TID 0000.0001) >#
(PID.TID 0000.0001) > &EXF_NML_03
(PID.TID 0000.0001) >#NOT FOR EIG exf_offset_atemp  = 273.3971,
(PID.TID 0000.0001) > exf_offset_atemp  = 273.15,
(PID.TID 0000.0001) >#NOT FOR NEW RUNOFF FIELD exf_inscal_runoff = 3.1710e-08,
(PID.TID 0000.0001) > exf_inscal_swdown = -1.0,
(PID.TID 0000.0001) > exf_inscal_lwdown = -1.0,
(PID.TID 0000.0001) > exf_inscal_ustress = -1.0,
(PID.TID 0000.0001) > exf_inscal_vstress = -1.0,
(PID.TID 0000.0001) ># to compensate for sea level rise for nlfs/realFWF
(PID.TID 0000.0001) >#precip_exfremo_intercept = 1.073E-9,
(PID.TID 0000.0001) >#precip_exfremo_slope = -3.340E-18,
(PID.TID 0000.0001) > /
(PID.TID 0000.0001) >#
(PID.TID 0000.0001) > &EXF_NML_04
(PID.TID 0000.0001) > runoff_interpMethod = 0,
(PID.TID 0000.0001) > climsss_interpMethod = 0,
(PID.TID 0000.0001) > ustress_interpMethod = 0,
(PID.TID 0000.0001) > vstress_interpMethod = 0,
(PID.TID 0000.0001) > atemp_interpMethod = 0,
(PID.TID 0000.0001) > aqh_interpMethod = 0,
(PID.TID 0000.0001) > precip_interpMethod = 0,
(PID.TID 0000.0001) > wspeed_interpMethod = 0,
(PID.TID 0000.0001) > swdown_interpMethod = 0,
(PID.TID 0000.0001) > lwdown_interpMethod = 0,
(PID.TID 0000.0001) > apressure_interpMethod = 0,
(PID.TID 0000.0001) >#
(PID.TID 0000.0001) > /
(PID.TID 0000.0001) 
(PID.TID 0000.0001) EXF_READPARMS: reading EXF_NML_01
(PID.TID 0000.0001) EXF_READPARMS: reading EXF_NML_02
(PID.TID 0000.0001) EXF_READPARMS: reading EXF_NML_03
(PID.TID 0000.0001) EXF_READPARMS: reading EXF_NML_04
(PID.TID 0000.0001) EXF_READPARMS: finished reading data.exf
(PID.TID 0000.0001)  GGL90_READPARMS: opening data.ggl90
(PID.TID 0000.0001)  OPEN_COPY_DATA_FILE: opening file data.ggl90
(PID.TID 0000.0001) // =======================================================
(PID.TID 0000.0001) // Parameter file "data.ggl90"
(PID.TID 0000.0001) // =======================================================
(PID.TID 0000.0001) ># =====================================================================
(PID.TID 0000.0001) ># | Parameters for Gaspar et al. (1990)'s TKE vertical mixing scheme  |
(PID.TID 0000.0001) ># =====================================================================
(PID.TID 0000.0001) > &GGL90_PARM01
(PID.TID 0000.0001) ># GGL90taveFreq = 345600000.,
(PID.TID 0000.0001) ># GGL90dumpFreq = 86400.,
(PID.TID 0000.0001) ># GGL90writeState=.FALSE.,
(PID.TID 0000.0001) ># GGL90diffTKEh=3.e3,
(PID.TID 0000.0001) > GGL90alpha=30.,
(PID.TID 0000.0001) ># GGL90TKEFile = 'TKE_init.bin',
(PID.TID 0000.0001) > GGL90TKEmin  = 1.e-7,
(PID.TID 0000.0001) > GGL90TKEbottom = 1.e-6,
(PID.TID 0000.0001) > mxlMaxFlag =2,
(PID.TID 0000.0001) > mxlSurfFlag=.TRUE.,
(PID.TID 0000.0001) > /
(PID.TID 0000.0001) 
(PID.TID 0000.0001)  GGL90_READPARMS: finished reading data.ggl90
(PID.TID 0000.0001) // =======================================================
(PID.TID 0000.0001) // GGL90 configuration
(PID.TID 0000.0001) // =======================================================
(PID.TID 0000.0001) GGL90dumpFreq =   /* GGL90 state write out interval ( s ). */
(PID.TID 0000.0001)                 0.000000000000000E+00
(PID.TID 0000.0001)     ;
(PID.TID 0000.0001) GGL90taveFreq =   /* GGL90 averaging interval ( s ). */
(PID.TID 0000.0001)                 0.000000000000000E+00
(PID.TID 0000.0001)     ;
(PID.TID 0000.0001) GGL90mixingMAPS =   /* GGL90 IO flag. */
(PID.TID 0000.0001)                   F
(PID.TID 0000.0001)     ;
(PID.TID 0000.0001) GGL90writeState =   /* GGL90 IO flag. */
(PID.TID 0000.0001)                   F
(PID.TID 0000.0001)     ;
(PID.TID 0000.0001) GGL90ck =   /* GGL90 viscosity parameter. */
(PID.TID 0000.0001)                 1.000000000000000E-01
(PID.TID 0000.0001)     ;
(PID.TID 0000.0001) GGL90ceps =   /* GGL90 dissipation parameter. */
(PID.TID 0000.0001)                 7.000000000000000E-01
(PID.TID 0000.0001)     ;
(PID.TID 0000.0001) GGL90alpha =   /* GGL90 TKE diffusivity parameter. */
(PID.TID 0000.0001)                 3.000000000000000E+01
(PID.TID 0000.0001)     ;
(PID.TID 0000.0001) GGL90m2 =   /* GGL90 wind stress to vertical stress ratio. */
(PID.TID 0000.0001)                 3.750000000000000E+00
(PID.TID 0000.0001)     ;
(PID.TID 0000.0001) GGL90TKEmin =   /* GGL90 minimum kinetic energy ( m^2/s^2 ). */
(PID.TID 0000.0001)                 1.000000000000000E-07
(PID.TID 0000.0001)     ;
(PID.TID 0000.0001) GGL90TKEsurfMin =   /* GGL90 minimum surface kinetic energy ( m^2/s^2 ). */
(PID.TID 0000.0001)                 1.000000000000000E-04
(PID.TID 0000.0001)     ;
(PID.TID 0000.0001) GGL90TKEbottom =   /* GGL90 bottom kinetic energy ( m^2/s^2 ). */
(PID.TID 0000.0001)                 1.000000000000000E-06
(PID.TID 0000.0001)     ;
(PID.TID 0000.0001) GGL90viscMax =   /* GGL90 upper limit for viscosity ( m^2/s ). */
(PID.TID 0000.0001)                 1.000000000000000E+02
(PID.TID 0000.0001)     ;
(PID.TID 0000.0001) GGL90diffMax =   /* GGL90 upper limit for diffusivity ( m^2/s ). */
(PID.TID 0000.0001)                 1.000000000000000E+02
(PID.TID 0000.0001)     ;
(PID.TID 0000.0001) GGL90diffTKEh =   /* GGL90 horizontal diffusivity for TKE ( m^2/s ). */
(PID.TID 0000.0001)                 0.000000000000000E+00
(PID.TID 0000.0001)     ;
(PID.TID 0000.0001) GGL90mixingLengthMin =   /* GGL90 minimum mixing length ( m ). */
(PID.TID 0000.0001)                 1.000000000000000E-08
(PID.TID 0000.0001)     ;
(PID.TID 0000.0001) mxlMaxFlag =   /* Flag for limiting mixing-length method */
(PID.TID 0000.0001)                       2
(PID.TID 0000.0001)     ;
(PID.TID 0000.0001) mxlSurfFlag =   /* GGL90 flag for near surface mixing. */
(PID.TID 0000.0001)                   T
(PID.TID 0000.0001)     ;
(PID.TID 0000.0001) calcMeanVertShear = /* calc Mean of Vert.Shear (vs shear of Mean flow) */
(PID.TID 0000.0001)                   F
(PID.TID 0000.0001)     ;
(PID.TID 0000.0001) GGL90: GGL90TKEFile =
(PID.TID 0000.0001) GGL90writeState =   /* GGL90 Boundary condition flag. */
(PID.TID 0000.0001)                   T
(PID.TID 0000.0001)     ;
(PID.TID 0000.0001) // =======================================================
(PID.TID 0000.0001) // End of GGL90 config. summary
(PID.TID 0000.0001) // =======================================================
(PID.TID 0000.0001) 
(PID.TID 0000.0001)  GM_READPARMS: opening data.gmredi
(PID.TID 0000.0001)  OPEN_COPY_DATA_FILE: opening file data.gmredi
(PID.TID 0000.0001) // =======================================================
(PID.TID 0000.0001) // Parameter file "data.gmredi"
(PID.TID 0000.0001) // =======================================================
(PID.TID 0000.0001) ># GM+Redi package parameters:
(PID.TID 0000.0001) >#     GM_Small_Number  :: epsilon used in computing the slope
(PID.TID 0000.0001) >#     GM_slopeSqCutoff :: slope^2 cut-off value
(PID.TID 0000.0001) >
(PID.TID 0000.0001) >#-from MOM :
(PID.TID 0000.0001) ># GM_background_K: 	G & Mc.W  diffusion coefficient
(PID.TID 0000.0001) ># GM_maxSlope    :	max slope of isopycnals
(PID.TID 0000.0001) ># GM_Scrit       :	transition for scaling diffusion coefficient
(PID.TID 0000.0001) ># GM_Sd          :	half width scaling for diffusion coefficient
(PID.TID 0000.0001) ># GM_taper_scheme:	slope clipping or one of the tapering schemes
(PID.TID 0000.0001) ># GM_Kmin_horiz  :	horizontal diffusion minimum value
(PID.TID 0000.0001) >
(PID.TID 0000.0001) >#-Option parameters (needs to "define" options in GMREDI_OPTIONS.h")
(PID.TID 0000.0001) ># GM_isopycK     :	isopycnal diffusion coefficient (default=GM_background_K)
(PID.TID 0000.0001) ># GM_AdvForm     :	turn on GM Advective form       (default=Skew flux form)
(PID.TID 0000.0001) >
(PID.TID 0000.0001) > &GM_PARM01
(PID.TID 0000.0001) >  GM_Small_Number  = 1.D-20,
(PID.TID 0000.0001) >  GM_slopeSqCutoff = 1.D+08,
(PID.TID 0000.0001) >  GM_AdvForm         = .TRUE.,
(PID.TID 0000.0001) >  GM_isopycK         = 1.D+3,
(PID.TID 0000.0001) >  GM_background_K    = 1.D+3,
(PID.TID 0000.0001) >  GM_maxSlope        = 4.D-3,
(PID.TID 0000.0001) >  GM_taper_scheme    = 'stableGmAdjTap',
(PID.TID 0000.0001) >  GM_Kmin_horiz      = 100.,
(PID.TID 0000.0001) >  GM_Scrit           = 4.D-3,
(PID.TID 0000.0001) >  GM_Sd              = 1.D-3,
(PID.TID 0000.0001) >  GM_background_K3dFile='total_kapgm_r009bit11.bin'
(PID.TID 0000.0001) >  GM_isopycK3dFile='total_kapredi_r009bit11.bin'
(PID.TID 0000.0001) >
(PID.TID 0000.0001) >#
(PID.TID 0000.0001) >###  GM_Visbeck_alpha   = 1.5D-2,
(PID.TID 0000.0001) >###  GM_Visbeck_alpha   = 0.D0,
(PID.TID 0000.0001) >###  GM_Visbeck_length  = 2.D+5,
(PID.TID 0000.0001) >###  GM_Visbeck_depth   = 1.D+3,
(PID.TID 0000.0001) >###  GM_Visbeck_maxval_K= 2.5D+3,
(PID.TID 0000.0001) > /
(PID.TID 0000.0001) >
(PID.TID 0000.0001) >
(PID.TID 0000.0001) 
(PID.TID 0000.0001)  GM_READPARMS: finished reading data.gmredi
(PID.TID 0000.0001) 
(PID.TID 0000.0001)  SEAICE_READPARMS: opening data.seaice
(PID.TID 0000.0001)  OPEN_COPY_DATA_FILE: opening file data.seaice
(PID.TID 0000.0001) // =======================================================
(PID.TID 0000.0001) // Parameter file "data.seaice"
(PID.TID 0000.0001) // =======================================================
(PID.TID 0000.0001) ># SEAICE parameters
(PID.TID 0000.0001) > &SEAICE_PARM01
(PID.TID 0000.0001) >
(PID.TID 0000.0001) >      SEAICEpresH0=2.,
(PID.TID 0000.0001) >      SEAICEpresPow0=1,
(PID.TID 0000.0001) >      SEAICEpresPow1=1,
(PID.TID 0000.0001) >
(PID.TID 0000.0001) >      SEAICE_strength = 2.25e4,
(PID.TID 0000.0001) >      SEAICE_area_max = 0.97,
(PID.TID 0000.0001) >
(PID.TID 0000.0001) >      SEAICE_no_slip     = .TRUE.,
(PID.TID 0000.0001) >
(PID.TID 0000.0001) >      SEAICE_drag=0.001,
(PID.TID 0000.0001) >      OCEAN_drag=0.001,
(PID.TID 0000.0001) >
(PID.TID 0000.0001) >#####
(PID.TID 0000.0001) >      SEAICEuseTILT=.FALSE.,
(PID.TID 0000.0001) >      SEAICE_multDim=1,
(PID.TID 0000.0001) >      SEAICErestoreUnderIce=.TRUE.,
(PID.TID 0000.0001) >
(PID.TID 0000.0001) >      SEAICE_salt0=4.,
(PID.TID 0000.0001) >
(PID.TID 0000.0001) >      LSR_ERROR          = 2.e-4,
(PID.TID 0000.0001) >      SEAICEuseDYNAMICS  = .TRUE.,
(PID.TID 0000.0001) >      MIN_ATEMP          = -40.,
(PID.TID 0000.0001) >      MIN_TICE           = -40.,
(PID.TID 0000.0001) >      SEAICEadvScheme    = 33,
(PID.TID 0000.0001) >      SEAICEuseFluxForm = .TRUE.,
(PID.TID 0000.0001) >      SEAICEadvSnow      = .TRUE.,
(PID.TID 0000.0001) >      SEAICEdiffKhHeff   = 400.,
(PID.TID 0000.0001) >      SEAICEdiffKhArea   = 400.,
(PID.TID 0000.0001) >      SEAICEdiffKhSnow   = 400.,
(PID.TID 0000.0001) >      SEAICEuseFlooding  = .TRUE.,
(PID.TID 0000.0001) >      SEAICE_mcPheePiston= 3.858024691358025E-05,
(PID.TID 0000.0001) >      SEAICE_frazilFrac  = 1.,
(PID.TID 0000.0001) >      SEAICE_mcPheeTaper = 0.,
(PID.TID 0000.0001) >      SEAICE_areaLossFormula=2,
(PID.TID 0000.0001) >      SEAICEheatConsFix  = .TRUE.,
(PID.TID 0000.0001) >      SEAICE_tempFrz0    = -1.96,
(PID.TID 0000.0001) >      SEAICE_dTempFrz_dS = 0.,
(PID.TID 0000.0001) >      SEAICEuseMetricTerms = .TRUE.,
(PID.TID 0000.0001) >      SEAICE_clipVelocities = .TRUE.,
(PID.TID 0000.0001) >
(PID.TID 0000.0001) >#take 33% out of (1-albedo)
(PID.TID 0000.0001) >      SEAICE_dryIceAlb   = 0.84,
(PID.TID 0000.0001) >      SEAICE_wetIceAlb   = 0.78,
(PID.TID 0000.0001) >      SEAICE_drySnowAlb  = 0.90,
(PID.TID 0000.0001) >      SEAICE_wetSnowAlb  = 0.8 ,
(PID.TID 0000.0001) >#default albedos
(PID.TID 0000.0001) >      SEAICE_dryIceAlb_south   = 0.75,
(PID.TID 0000.0001) >      SEAICE_wetIceAlb_south   = 0.66,
(PID.TID 0000.0001) >      SEAICE_drySnowAlb_south  = 0.84,
(PID.TID 0000.0001) >      SEAICE_wetSnowAlb_south  = 0.7,
(PID.TID 0000.0001) > /
(PID.TID 0000.0001) >#
(PID.TID 0000.0001) > &SEAICE_PARM02
(PID.TID 0000.0001) > /
(PID.TID 0000.0001) 
(PID.TID 0000.0001)  SEAICE_READPARMS: finished reading data.seaice
(PID.TID 0000.0001) SALT_PLUME_READPARMS: opening data.salt_plume
(PID.TID 0000.0001)  OPEN_COPY_DATA_FILE: opening file data.salt_plume
(PID.TID 0000.0001) // =======================================================
(PID.TID 0000.0001) // Parameter file "data.salt_plume"
(PID.TID 0000.0001) // =======================================================
(PID.TID 0000.0001) > &SALT_PLUME_PARM01
(PID.TID 0000.0001) ># SaltPlumeCriterion = 0.4D0,
(PID.TID 0000.0001) > SPsalFRAC= 0.5D0,
(PID.TID 0000.0001) >#SPsalFRAC= 0.25D0,
(PID.TID 0000.0001) >#SPsalFRAC= 0.0D0,
(PID.TID 0000.0001) > /
(PID.TID 0000.0001) 
(PID.TID 0000.0001) SALT_PLUME_READPARMS: finished reading data.salt_plume
(PID.TID 0000.0001) AUTODIFF_READPARMS: opening data.autodiff
(PID.TID 0000.0001)  OPEN_COPY_DATA_FILE: opening file data.autodiff
(PID.TID 0000.0001) // =======================================================
(PID.TID 0000.0001) // Parameter file "data.autodiff"
(PID.TID 0000.0001) // =======================================================
(PID.TID 0000.0001) ># =========================
(PID.TID 0000.0001) ># pkg AUTODIFF parameters :
(PID.TID 0000.0001) ># =========================
(PID.TID 0000.0001) >#  inAdExact :: get an exact adjoint (no approximation) (def=.True.)
(PID.TID 0000.0001) >#
(PID.TID 0000.0001) > &AUTODIFF_PARM01
(PID.TID 0000.0001) ># inAdExact = .FALSE.,
(PID.TID 0000.0001) > useSEAICEinAdMode = .FALSE.,
(PID.TID 0000.0001) ># useKPPinAdMode = .FALSE.,
(PID.TID 0000.0001) ># useGMRediInAdMode = .FALSE.,
(PID.TID 0000.0001) > useGGL90inAdMode = .FALSE.,
(PID.TID 0000.0001) > useSALT_PLUMEinAdMode = .FALSE.,
(PID.TID 0000.0001) > /
(PID.TID 0000.0001) 
(PID.TID 0000.0001) AUTODIFF_READPARMS: finished reading data.autodiff
(PID.TID 0000.0001) // ===================================
(PID.TID 0000.0001) // AUTODIFF parameters :
(PID.TID 0000.0001) // ===================================
(PID.TID 0000.0001) inAdExact = /* get an exact adjoint (no approximation) */
(PID.TID 0000.0001)                   T
(PID.TID 0000.0001)     ;
(PID.TID 0000.0001) useKPPinAdMode = /* use KPP in adjoint mode */
(PID.TID 0000.0001)                   F
(PID.TID 0000.0001)     ;
(PID.TID 0000.0001) useGMRediInAdMode = /* use GMRedi in adjoint mode */
(PID.TID 0000.0001)                   T
(PID.TID 0000.0001)     ;
(PID.TID 0000.0001) useSEAICEinAdMode = /* use SEAICE in adjoint mode */
(PID.TID 0000.0001)                   F
(PID.TID 0000.0001)     ;
(PID.TID 0000.0001) useGGL90inAdMode = /* use GGL90 in adjoint mode */
(PID.TID 0000.0001)                   F
(PID.TID 0000.0001)     ;
(PID.TID 0000.0001) useSALT_PLUMEinAdMode = /* use SALT_PLUME in adjoint mode */
(PID.TID 0000.0001)                   F
(PID.TID 0000.0001)     ;
(PID.TID 0000.0001) SEAICEuseDYNAMICSswitchInAd = /* switch On/Off SEAICE Dyn in AD mode */
(PID.TID 0000.0001)                   F
(PID.TID 0000.0001)     ;
(PID.TID 0000.0001) SEAICEuseFREEDRIFTswitchInAd= /* switch On/Off Free-Drift in AD mode */
(PID.TID 0000.0001)                   F
(PID.TID 0000.0001)     ;
(PID.TID 0000.0001) SEAICEapproxLevInAd = /* -1:SEAICE_FAKE, >0:other adjoint approximation */
(PID.TID 0000.0001)                       0
(PID.TID 0000.0001)     ;
(PID.TID 0000.0001) dumpAdVarExch = /* control adexch before dumpinp */
(PID.TID 0000.0001)                       2
(PID.TID 0000.0001)     ;
(PID.TID 0000.0001) mon_AdVarExch = /* control adexch before monitor */
(PID.TID 0000.0001)                       2
(PID.TID 0000.0001)     ;
(PID.TID 0000.0001) viscFacInAd = /* viscosity factor for adjoint */
(PID.TID 0000.0001)                 1.000000000000000E+00
(PID.TID 0000.0001)     ;
(PID.TID 0000.0001) 
(PID.TID 0000.0001) OPTIM_READPARMS: opening data.optim
(PID.TID 0000.0001)  OPEN_COPY_DATA_FILE: opening file data.optim
(PID.TID 0000.0001) // =======================================================
(PID.TID 0000.0001) // Parameter file "data.optim"
(PID.TID 0000.0001) // =======================================================
(PID.TID 0000.0001) > &OPTIM
(PID.TID 0000.0001) > optimcycle=129,
(PID.TID 0000.0001) > /
(PID.TID 0000.0001) 
(PID.TID 0000.0001) OPTIM_READPARMS: finished reading data.optim
(PID.TID 0000.0001) CTRL_READPARMS: opening data.ctrl
(PID.TID 0000.0001)  OPEN_COPY_DATA_FILE: opening file data.ctrl
(PID.TID 0000.0001) // =======================================================
(PID.TID 0000.0001) // Parameter file "data.ctrl"
(PID.TID 0000.0001) // =======================================================
(PID.TID 0000.0001) ># *********************
(PID.TID 0000.0001) ># ECCO controlvariables
(PID.TID 0000.0001) ># *********************
(PID.TID 0000.0001) > &ctrl_nml
(PID.TID 0000.0001) >#
(PID.TID 0000.0001) > doSinglePrecTapelev=.TRUE.,
(PID.TID 0000.0001) > ctrlSmoothCorrel2D=.TRUE.,
(PID.TID 0000.0001) > ctrlSmoothCorrel3D=.TRUE.,
(PID.TID 0000.0001) >  ctrlUseGen=.TRUE.,
(PID.TID 0000.0001) >#to start from given xx*00.data files
(PID.TID 0000.0001) >  doinitxx = .FALSE.,
(PID.TID 0000.0001) >  doMainUnpack = .FALSE.,
(PID.TID 0000.0001) >#to start from given ecco_ctrl... files
(PID.TID 0000.0001) ># doinitxx = .FALSE.,
(PID.TID 0000.0001) >#
(PID.TID 0000.0001) >#doPackDiag = .TRUE.,
(PID.TID 0000.0001) > forcingPrecond=1.,
(PID.TID 0000.0001) >/
(PID.TID 0000.0001) >
(PID.TID 0000.0001) >#
(PID.TID 0000.0001) ># *********************
(PID.TID 0000.0001) ># names for ctrl_pack/unpack
(PID.TID 0000.0001) ># *********************
(PID.TID 0000.0001) > &ctrl_packnames
(PID.TID 0000.0001) > /
(PID.TID 0000.0001) >#
(PID.TID 0000.0001) ># *********************
(PID.TID 0000.0001) ># names for CTRL_GENARR, CTRL_GENTIM
(PID.TID 0000.0001) ># *********************
(PID.TID 0000.0001) > &CTRL_NML_GENARR
(PID.TID 0000.0001) >#
(PID.TID 0000.0001) > xx_genarr2d_weight(1) = 'SSH_weights_nonseasonal_rms_areascaled.bin',
(PID.TID 0000.0001) > xx_genarr2d_file(1)='xx_etan',
(PID.TID 0000.0001) > xx_genarr2d_bounds(1:5,1)=-9.0,-8.9,8.9,9.0,0.,
(PID.TID 0000.0001) > xx_genarr2d_preproc(1,1)='WC01',
(PID.TID 0000.0001) > xx_genarr2d_preproc_i(1,1)=1,
(PID.TID 0000.0001) > mult_genarr2d(1) = 1.,
(PID.TID 0000.0001) >#
(PID.TID 0000.0001) > xx_genarr3d_weight(1) = 'Theta_weights_nonseasonal_rmsv2_areascaled.bin',
(PID.TID 0000.0001) > xx_genarr3d_file(1)='xx_theta',
(PID.TID 0000.0001) > xx_genarr3d_bounds(1:5,1)=-2.0,-1.9,39.,40.,0.,
(PID.TID 0000.0001) > xx_genarr3d_preproc(1,1)='WC01',
(PID.TID 0000.0001) > xx_genarr3d_preproc_i(1,1)=1,
(PID.TID 0000.0001) > mult_genarr3d(1) = 1.,
(PID.TID 0000.0001) >#
(PID.TID 0000.0001) > xx_genarr3d_weight(2) = 'Salt_weights_nonseasonal_rmsv2_areascaled.bin',
(PID.TID 0000.0001) > xx_genarr3d_file(2)='xx_salt',
(PID.TID 0000.0001) > xx_genarr3d_bounds(1:5,2)=20.,20.5,40.5,41.,0.,
(PID.TID 0000.0001) > xx_genarr3d_preproc(1,2)='WC01',
(PID.TID 0000.0001) > xx_genarr3d_preproc_i(1,2)=1,
(PID.TID 0000.0001) > mult_genarr3d(2) = 1.,
(PID.TID 0000.0001) >#
(PID.TID 0000.0001) > xx_genarr3d_weight(3) = 'r2.wkapgmFldv2.data',
(PID.TID 0000.0001) > xx_genarr3d_file(3)='xx_kapgm',
(PID.TID 0000.0001) > xx_genarr3d_bounds(1:5,3)=1.E2,2.E2,0.9E4,1.E4,0.,
(PID.TID 0000.0001) > xx_genarr3d_preproc(1,3)='WC01',
(PID.TID 0000.0001) > xx_genarr3d_preproc_i(1,3)=1,
(PID.TID 0000.0001) > mult_genarr3d(3) = 1.,
(PID.TID 0000.0001) >#
(PID.TID 0000.0001) > xx_genarr3d_weight(4) = 'r2.wkaprediFldv2.data',
(PID.TID 0000.0001) > xx_genarr3d_file(4)='xx_kapredi',
(PID.TID 0000.0001) > xx_genarr3d_bounds(1:5,4)=1.E2,2.E2,0.9E4,1.E4,0.,
(PID.TID 0000.0001) > xx_genarr3d_preproc(1,4)='WC01',
(PID.TID 0000.0001) > xx_genarr3d_preproc_i(1,4)=1,
(PID.TID 0000.0001) > mult_genarr3d(4) = 1.,
(PID.TID 0000.0001) >#
(PID.TID 0000.0001) > xx_genarr3d_weight(5) = 'r2.wdiffkrFldv2.data',
(PID.TID 0000.0001) > xx_genarr3d_file(5)='xx_diffkr',
(PID.TID 0000.0001) > xx_genarr3d_bounds(1:5,5)=1.E-6,2.E-6,4.E-4,5.E-4,0.,
(PID.TID 0000.0001) > xx_genarr3d_preproc(1,5)='WC01',
(PID.TID 0000.0001) > xx_genarr3d_preproc_i(1,5)=1,
(PID.TID 0000.0001) > mult_genarr3d(5) = 1.,
(PID.TID 0000.0001) >#
(PID.TID 0000.0001) > xx_genarr3d_weight(6) = 'Uvel_weights_nonseasonal_rmsv2_areascaled.bin',
(PID.TID 0000.0001) > xx_genarr3d_file(6)='xx_uvel',
(PID.TID 0000.0001) > xx_genarr3d_bounds(1:5,6)=-3.,-2.9, 2.9,3.,0.,
(PID.TID 0000.0001) > xx_genarr3d_preproc(1,6)='WC01',
(PID.TID 0000.0001) > xx_genarr3d_preproc_i(1,6)=1,
(PID.TID 0000.0001) > mult_genarr3d(6) = 1.,
(PID.TID 0000.0001) >#
(PID.TID 0000.0001) > xx_genarr3d_weight(7) = 'Vvel_weights_nonseasonal_rmsv2_areascaled.bin',
(PID.TID 0000.0001) > xx_genarr3d_file(7)='xx_vvel',
(PID.TID 0000.0001) > xx_genarr3d_bounds(1:5,7)=-3.,-2.9, 2.9,3.,0.,
(PID.TID 0000.0001) > xx_genarr3d_preproc(1,7)='WC01',
(PID.TID 0000.0001) > xx_genarr3d_preproc_i(1,7)=1,
(PID.TID 0000.0001) > mult_genarr3d(7) = 1.,
(PID.TID 0000.0001) >#
(PID.TID 0000.0001) > /
(PID.TID 0000.0001) 
(PID.TID 0000.0001) CTRL_READPARMS: finished reading data.ctrl
(PID.TID 0000.0001) COST_READPARMS: opening data.cost
(PID.TID 0000.0001)  OPEN_COPY_DATA_FILE: opening file data.cost
(PID.TID 0000.0001) // =======================================================
(PID.TID 0000.0001) // Parameter file "data.cost"
(PID.TID 0000.0001) // =======================================================
(PID.TID 0000.0001) >#
(PID.TID 0000.0001) >#
(PID.TID 0000.0001) ># ******************
(PID.TID 0000.0001) ># cost function
(PID.TID 0000.0001) ># ******************
(PID.TID 0000.0001) > &COST_NML
(PID.TID 0000.0001) > /
(PID.TID 0000.0001) 
(PID.TID 0000.0001) COST_READPARMS: finished reading data.cost
(PID.TID 0000.0001) SMOOTH_READPARMS: opening data.smooth
(PID.TID 0000.0001)  OPEN_COPY_DATA_FILE: opening file data.smooth
(PID.TID 0000.0001) // =======================================================
(PID.TID 0000.0001) // Parameter file "data.smooth"
(PID.TID 0000.0001) // =======================================================
(PID.TID 0000.0001) > &SMOOTH_NML
(PID.TID 0000.0001) > smooth2Dnbt(1)=300
(PID.TID 0000.0001) > smooth2Dtype(1)=1
(PID.TID 0000.0001) > smooth2Dsize(1)=2
(PID.TID 0000.0001) > smooth2Dfilter(1)=0
(PID.TID 0000.0001) > smooth3Dnbt(1)=300
(PID.TID 0000.0001) > smooth3DtypeH(1)=1
(PID.TID 0000.0001) > smooth3DsizeH(1)=3
(PID.TID 0000.0001) > smooth3DtypeZ(1)=1
(PID.TID 0000.0001) > smooth3DsizeZ(1)=3
(PID.TID 0000.0001) > smooth3Dfilter(1)=0
(PID.TID 0000.0001) > /
(PID.TID 0000.0001) 
(PID.TID 0000.0001) SMOOTH_READPARMS: finished reading data.smooth
(PID.TID 0000.0001) // =======================================================
(PID.TID 0000.0001) // pkg/smooth configuration
(PID.TID 0000.0001) // =======================================================
(PID.TID 0000.0001) smooth 2D parameters:  1   300    0.    0.
(PID.TID 0000.0001) smooth 3D parameters:  1   300    0.    0.    0.
(PID.TID 0000.0001) // =======================================================
(PID.TID 0000.0001) // End of pkg/smooth config. summary
(PID.TID 0000.0001) // =======================================================
(PID.TID 0000.0001) 
(PID.TID 0000.0001) ECCO_READPARMS: opening data.ecco
(PID.TID 0000.0001)  OPEN_COPY_DATA_FILE: opening file data.ecco
(PID.TID 0000.0001) // =======================================================
(PID.TID 0000.0001) // Parameter file "data.ecco"
(PID.TID 0000.0001) // =======================================================
(PID.TID 0000.0001) >#
(PID.TID 0000.0001) >#
(PID.TID 0000.0001) ># ******************
(PID.TID 0000.0001) ># ECCO cost function
(PID.TID 0000.0001) ># ******************
(PID.TID 0000.0001) >#
(PID.TID 0000.0001) > &ECCO_COST_NML
(PID.TID 0000.0001) >#
(PID.TID 0000.0001) > data_errfile    = 'data.err',
(PID.TID 0000.0001) > temp0errfile     = 'Theta_sigma_smoothed_method_02_masked_merged_capped_areascaled.bin',
(PID.TID 0000.0001) > salt0errfile     = 'Salt_sigma_smoothed_method_02_masked_merged_capped_areascaled.bin',
(PID.TID 0000.0001) > cost_iprec  = 32,
(PID.TID 0000.0001) > cost_yftype = 'RL',
(PID.TID 0000.0001) >#
(PID.TID 0000.0001) > /
(PID.TID 0000.0001) >#
(PID.TID 0000.0001) > &ECCO_GENCOST_NML
(PID.TID 0000.0001) >#
(PID.TID 0000.0001) >  gencost_avgperiod(1)  = 'day',
(PID.TID 0000.0001) >  gencost_barfile(1) = 'gbar_area',
(PID.TID 0000.0001) >  gencost_datafile(1) = 'NOAA_NSIDC_DAILY_v3b_MAPPED_TO_LLC90',
(PID.TID 0000.0001) >  gencost_errfile(1) = 'sigma_iceconc_eccollc_coastalmask_areascaled.bin',
(PID.TID 0000.0001) >  gencost_name(1) = 'siv4-conc',
(PID.TID 0000.0001) >  gencost_spmin(1) = -999.,
(PID.TID 0000.0001) >  gencost_spmax(1) = 999.,
(PID.TID 0000.0001) >  gencost_spzero(1) = -9999.,
(PID.TID 0000.0001) >  gencost_outputlevel(1)=1,
(PID.TID 0000.0001) >  mult_gencost(1) = 0.,
(PID.TID 0000.0001) >#
(PID.TID 0000.0001) >  gencost_avgperiod(2)  = 'day',
(PID.TID 0000.0001) >  gencost_barfile(2) = 'gbar_deconc',
(PID.TID 0000.0001) >  gencost_name(2) = 'siv4-deconc',
(PID.TID 0000.0001) >  gencost_datafile(2) = 'NOAA_NSIDC_DAILY_v3b_MAPPED_TO_LLC90',
(PID.TID 0000.0001) >  gencost_errfile(2) = 'seaiceproxy_sigma_coastalmask_areascaled.bin',
(PID.TID 0000.0001) >  gencost_spmin(2) = -999.,
(PID.TID 0000.0001) >  gencost_spmax(2) = 999.,
(PID.TID 0000.0001) >  gencost_spzero(2) = -9999.,
(PID.TID 0000.0001) >  gencost_outputlevel(2)=1,
(PID.TID 0000.0001) >  mult_gencost(2) = 0.071,
(PID.TID 0000.0001) >#
(PID.TID 0000.0001) >  gencost_avgperiod(3)  = 'day',
(PID.TID 0000.0001) >  gencost_barfile(3) = 'gbar_exconc',
(PID.TID 0000.0001) >  gencost_name(3) = 'siv4-exconc',
(PID.TID 0000.0001) >  gencost_datafile(3) = 'NOAA_NSIDC_DAILY_v3b_MAPPED_TO_LLC90',
(PID.TID 0000.0001) >  gencost_errfile(3) = 'seaiceproxy_sigma_coastalmask_areascaled.bin',
(PID.TID 0000.0001) >  gencost_spmin(3) = -999.,
(PID.TID 0000.0001) >  gencost_spmax(3) = 999.,
(PID.TID 0000.0001) >  gencost_spzero(3) = -9999.,
(PID.TID 0000.0001) >  gencost_outputlevel(3)=1,
(PID.TID 0000.0001) >  mult_gencost(3) = 0.,
(PID.TID 0000.0001) >#
(PID.TID 0000.0001) >  gencost_avgperiod(4)  = 'month',
(PID.TID 0000.0001) >  gencost_barfile(4) = 'm_sstmon',
(PID.TID 0000.0001) >  gencost_datafile(4) = 'reynolds_oiv2_r1_mar2018_simasked',
(PID.TID 0000.0001) >  gencost_errfile(4) = 'sigma_half_areascaled.bin',
(PID.TID 0000.0001) >  gencost_name(4) = 'sst-reynoldsmean',
(PID.TID 0000.0001) >  gencost_spmin(4) = -1.8,
(PID.TID 0000.0001) >  gencost_spmax(4) = 40.,
(PID.TID 0000.0001) >  gencost_spzero(4) = 0.,
(PID.TID 0000.0001) >  gencost_preproc(1,4)='mean',
(PID.TID 0000.0001) >  gencost_outputlevel(4)=1,
(PID.TID 0000.0001) >  mult_gencost(4) = 1.,
(PID.TID 0000.0001) >#
(PID.TID 0000.0001) >  gencost_avgperiod(5)  = 'month',
(PID.TID 0000.0001) >  gencost_barfile(5) = 'm_sstmon',
(PID.TID 0000.0001) >  gencost_datafile(5) = 'reynolds_oiv2_r1_mar2018_simasked',
(PID.TID 0000.0001) >  gencost_errfile(5) = 'sigma_half_areascaled.bin',
(PID.TID 0000.0001) >  gencost_name(5) = 'sst-reynoldsanom',
(PID.TID 0000.0001) >  gencost_spmin(5) = -1.8,
(PID.TID 0000.0001) >  gencost_spmax(5) = 40.,
(PID.TID 0000.0001) >  gencost_spzero(5) = 0.,
(PID.TID 0000.0001) >  gencost_preproc(1,5)='anom',
(PID.TID 0000.0001) >  gencost_outputlevel(5)=1,
(PID.TID 0000.0001) >  mult_gencost(5) = 1.,
(PID.TID 0000.0001) >
(PID.TID 0000.0001) >#
(PID.TID 0000.0001) ># gencost_avgperiod(5)  = 'month',
(PID.TID 0000.0001) ># gencost_barfile(5) = 'sstmon',
(PID.TID 0000.0001) ># gencost_datafile(5) = 'tmi_amsre_oisst_r1',
(PID.TID 0000.0001) ># gencost_errfile(5) = 'sigma_half_areascaled.bin',
(PID.TID 0000.0001) ># gencost_name(5) = 'sst-tmi-amsre',
(PID.TID 0000.0001) ># gencost_startdate1(5) = 19980101,
(PID.TID 0000.0001) ># gencost_startdate2(5)= 00000,
(PID.TID 0000.0001) ># gencost_spmin(5) = -1.8,
(PID.TID 0000.0001) ># gencost_spmax(5) = 40.,
(PID.TID 0000.0001) ># gencost_spzero(5) = 0.,
(PID.TID 0000.0001) ># gencost_outputlevel(5)=1,
(PID.TID 0000.0001) ># mult_gencost(5) = 0.,
(PID.TID 0000.0001) >#
(PID.TID 0000.0001) >  gencost_avgperiod(6)  = 'month',
(PID.TID 0000.0001) >  gencost_barfile(6) = 'm_bp_nopabarmon',
(PID.TID 0000.0001) >  gencost_datafile(6) = 'GRACE_jpl_rl05m_20180122',
(PID.TID 0000.0001) >  gencost_errfile(6) = 'GRACE_jpl_rl05m_20180122_err_areascaled',
(PID.TID 0000.0001) >  gencost_name(6) = 'bpv4-grace',
(PID.TID 0000.0001) >  gencost_outputlevel(6)=1,
(PID.TID 0000.0001) >  mult_gencost(6) = 1.,
(PID.TID 0000.0001) >#
(PID.TID 0000.0001) >  gencost_avgperiod(7)  = 'month',
(PID.TID 0000.0001) >  gencost_barfile(7) = 'm_thetamon',
(PID.TID 0000.0001) >  gencost_datafile(7) = 'T_monthly_woa09_highlatnearsurface_masked',
(PID.TID 0000.0001) >  gencost_errfile(7) = 'Theta_sigma_smoothed_method_02_masked_merged_capped_areascaled.bin',
(PID.TID 0000.0001) >#  gencost_name(7) = 'thetaclim',
(PID.TID 0000.0001) >  gencost_name(7) = 'thetamean',
(PID.TID 0000.0001) >  gencost_spmin(7) = -1.8,
(PID.TID 0000.0001) >  gencost_spmax(7) = 40.,
(PID.TID 0000.0001) >  gencost_spzero(7) = 0.,
(PID.TID 0000.0001) >  gencost_is3d(7)=.TRUE.,
(PID.TID 0000.0001) >  gencost_preproc(1,7)='mean',
(PID.TID 0000.0001) >  gencost_outputlevel(7)=1,
(PID.TID 0000.0001) >  mult_gencost(7) = 1.,
(PID.TID 0000.0001) >#
(PID.TID 0000.0001) >  gencost_avgperiod(8)  = 'month',
(PID.TID 0000.0001) >  gencost_barfile(8) = 'm_saltmon',
(PID.TID 0000.0001) >  gencost_datafile(8) = 'S_monthly_woa09_highlatnearsurface_masked',
(PID.TID 0000.0001) >  gencost_errfile(8) = 'Salt_sigma_smoothed_method_02_masked_merged_capped_areascaled.bin',
(PID.TID 0000.0001) >#  gencost_name(8) = 'saltclim',
(PID.TID 0000.0001) >  gencost_name(8) = 'saltmean',
(PID.TID 0000.0001) >  gencost_spmin(8) = 25.,
(PID.TID 0000.0001) >  gencost_spmax(8) = 40.,
(PID.TID 0000.0001) >  gencost_spzero(8) = 0.,
(PID.TID 0000.0001) >  gencost_is3d(8)=.TRUE.,
(PID.TID 0000.0001) >  gencost_preproc(1,8)='mean',
(PID.TID 0000.0001) >  gencost_outputlevel(8)=1,
(PID.TID 0000.0001) >  mult_gencost(8) = 1.,
(PID.TID 0000.0001) >#
(PID.TID 0000.0001) > gencost_datafile(11) = 'mdt2_dtu17.bin',
(PID.TID 0000.0001) > gencost_startdate1(11) = 19930101,
(PID.TID 0000.0001) > gencost_startdate2(11) = 00000,
(PID.TID 0000.0001) > gencost_enddate1(11) = 20171231,
(PID.TID 0000.0001) > gencost_enddate2(11) = 00000,
(PID.TID 0000.0001) > gencost_errfile(11) = 'mdt_dtu13_error_m_areascaled.bin',
(PID.TID 0000.0001) > gencost_name(11) = 'sshv4-mdt',
(PID.TID 0000.0001) > gencost_posproc(1,11)='smooth',
(PID.TID 0000.0001) > gencost_posproc_c(1,11)='sshv4_scale_1p5points.bin',
(PID.TID 0000.0001) > gencost_posproc_i(1,11)=300,
(PID.TID 0000.0001) > gencost_outputlevel(11)=1,
(PID.TID 0000.0001) > mult_gencost(11) = 1.,
(PID.TID 0000.0001) >#
(PID.TID 0000.0001) > gencost_barfile(12) = 'm_eta_dynday',
(PID.TID 0000.0001) > gencost_datafile(12) = 'RADS_TJ_mar2018',
(PID.TID 0000.0001) > gencost_startdate1(12) = 19920101,
(PID.TID 0000.0001) > gencost_startdate2(12) = 00000,
(PID.TID 0000.0001) > gencost_avgperiod(12)  = 'day',
(PID.TID 0000.0001) > gencost_errfile(12) = 'slaerr_gridscale_r5_areascaled.err',
(PID.TID 0000.0001) > gencost_name(12) = 'sshv4-tp',
(PID.TID 0000.0001) > gencost_outputlevel(12)=1,
(PID.TID 0000.0001) > mult_gencost(12) = 0.,
(PID.TID 0000.0001) >#
(PID.TID 0000.0001) > gencost_datafile(13) = 'RADS_ERS_ENV_SA_mar2018',
(PID.TID 0000.0001) > gencost_startdate1(13) = 19920101,
(PID.TID 0000.0001) > gencost_startdate2(13) = 00000,
(PID.TID 0000.0001) > gencost_avgperiod(13)  = 'day',
(PID.TID 0000.0001) > gencost_errfile(13) = 'slaerr_gridscale_r5_areascaled.err',
(PID.TID 0000.0001) > gencost_name(13) = 'sshv4-ers',
(PID.TID 0000.0001) > gencost_outputlevel(13)=1,
(PID.TID 0000.0001) > mult_gencost(13) = 0.,
(PID.TID 0000.0001) >#
(PID.TID 0000.0001) > gencost_datafile(14) = 'RADS_GFO_C2_mar2018',
(PID.TID 0000.0001) > gencost_startdate1(14) = 19920101,
(PID.TID 0000.0001) > gencost_startdate2(14) = 00000,
(PID.TID 0000.0001) > gencost_avgperiod(14)  = 'day',
(PID.TID 0000.0001) > gencost_errfile(14) = 'slaerr_gridscale_r5_areascaled.err',
(PID.TID 0000.0001) > gencost_name(14) = 'sshv4-gfo',
(PID.TID 0000.0001) > gencost_outputlevel(14)=1,
(PID.TID 0000.0001) > mult_gencost(14) = 0.,
(PID.TID 0000.0001) >#
(PID.TID 0000.0001) > gencost_errfile(15) = 'slaerr_largescale_r5_areascaled.err',
(PID.TID 0000.0001) > gencost_name(15) = 'sshv4-lsc',
(PID.TID 0000.0001) >#gencost_scalefile(15) = 'sshv4_scale_3points.bin',
(PID.TID 0000.0001) > gencost_posproc(1,15)='smooth',
(PID.TID 0000.0001) > gencost_posproc_c(1,15)='sshv4_scale_3points.bin',
(PID.TID 0000.0001) > gencost_posproc_i(1,15)=300,
(PID.TID 0000.0001) > gencost_outputlevel(15)=1,
(PID.TID 0000.0001) > mult_gencost(15) = 0.001,
(PID.TID 0000.0001) >#
(PID.TID 0000.0001) >#gencost_name(16) = 'sshv4-gmsl',
(PID.TID 0000.0001) >#gencost_outputlevel(16)=1,
(PID.TID 0000.0001) >#mult_gencost(16) = 0.,
(PID.TID 0000.0001) >#
(PID.TID 0000.0001) >  gencost_avgperiod(17)  = 'month',
(PID.TID 0000.0001) >  gencost_barfile(17) = 'm_thetamon',
(PID.TID 0000.0001) >  gencost_datafile(17) = 'T_monthly_woa09_highlatnearsurface_masked',
(PID.TID 0000.0001) >  gencost_errfile(17) = 'Theta_sigma_smoothed_method_02_masked_merged_capped_areascaled.bin',
(PID.TID 0000.0001) >#  gencost_name(17) = 'thetaclim',
(PID.TID 0000.0001) >  gencost_name(17) = 'thetaanom',
(PID.TID 0000.0001) >  gencost_spmin(17) = -1.8,
(PID.TID 0000.0001) >  gencost_spmax(17) = 40.,
(PID.TID 0000.0001) >  gencost_spzero(17) = 0.,
(PID.TID 0000.0001) >  gencost_is3d(17)=.TRUE.,
(PID.TID 0000.0001) >  gencost_preproc(1,17)='clim',
(PID.TID 0000.0001) >  gencost_preproc_i(1,17)=12,
(PID.TID 0000.0001) >  gencost_preproc(2,17)='anom',
(PID.TID 0000.0001) >  gencost_outputlevel(17)=1,
(PID.TID 0000.0001) >  mult_gencost(17) = 1.,
(PID.TID 0000.0001) >#
(PID.TID 0000.0001) >  gencost_avgperiod(18)  = 'month',
(PID.TID 0000.0001) >  gencost_barfile(18) = 'm_saltmon',
(PID.TID 0000.0001) >  gencost_datafile(18) = 'S_monthly_woa09_highlatnearsurface_masked',
(PID.TID 0000.0001) >  gencost_errfile(18) = 'Salt_sigma_smoothed_method_02_masked_merged_capped_areascaled.bin',
(PID.TID 0000.0001) >#  gencost_name(18) = 'saltclim',
(PID.TID 0000.0001) >  gencost_name(18) = 'saltanom',
(PID.TID 0000.0001) >  gencost_spmin(18) = 25.,
(PID.TID 0000.0001) >  gencost_spmax(18) = 40.,
(PID.TID 0000.0001) >  gencost_spzero(18) = 0.,
(PID.TID 0000.0001) >  gencost_is3d(18)=.TRUE.,
(PID.TID 0000.0001) >  gencost_preproc(1,18)='clim',
(PID.TID 0000.0001) >  gencost_preproc_i(1,18)=12,
(PID.TID 0000.0001) >  gencost_preproc(2,18)='anom',
(PID.TID 0000.0001) >  gencost_outputlevel(18)=1,
(PID.TID 0000.0001) >  mult_gencost(18) = 1.,
(PID.TID 0000.0001) >#
(PID.TID 0000.0001) >  gencost_avgperiod(19)  = 'month',
(PID.TID 0000.0001) >  gencost_barfile(19) = 'm_sssmon',
(PID.TID 0000.0001) >  gencost_datafile(19) = 'monthlyL3v5_20180129',
(PID.TID 0000.0001) >  gencost_errfile(19) = 'errStdAQ_v3_llc_090_floored_areascaled',
(PID.TID 0000.0001) >  gencost_name(19) = 'sss_AQanom',
(PID.TID 0000.0001) >  gencost_spmin(19) = 25.,
(PID.TID 0000.0001) >  gencost_spmax(19) = 40.,
(PID.TID 0000.0001) >  gencost_spzero(19) = 0.,
(PID.TID 0000.0001) >  gencost_preproc(1,19) = 'anom',
(PID.TID 0000.0001) ># gencost_is3d(19)=.TRUE.,
(PID.TID 0000.0001) >  gencost_outputlevel(19)=1,
(PID.TID 0000.0001) >  mult_gencost(19) = 1.,
(PID.TID 0000.0001) >#
(PID.TID 0000.0001) >  gencost_avgperiod(20)  = 'month',
(PID.TID 0000.0001) >  gencost_barfile(20) = 'm_sssmon',
(PID.TID 0000.0001) >  gencost_datafile(20) = 'monthlyL3v5_20180129',
(PID.TID 0000.0001) >  gencost_errfile(20) = 'biasStdAQ_v3_llc_090_floored_areascaled',
(PID.TID 0000.0001) >  gencost_name(20) = 'sss_AQmean',
(PID.TID 0000.0001) >  gencost_spmin(20) = 25.,
(PID.TID 0000.0001) >  gencost_spmax(20) = 40.,
(PID.TID 0000.0001) >  gencost_spzero(20) = 0.,
(PID.TID 0000.0001) >  gencost_preproc(1,20) = 'mean',
(PID.TID 0000.0001) ># gencost_is3d(20)=.TRUE.,
(PID.TID 0000.0001) >  gencost_outputlevel(20)=1,
(PID.TID 0000.0001) >  mult_gencost(20) = 1.,
(PID.TID 0000.0001) >#
(PID.TID 0000.0001) >  gencost_avgperiod(21)  = 'month',
(PID.TID 0000.0001) >  gencost_barfile(21) = 'm_bp_nopabarmon',
(PID.TID 0000.0001) >  gencost_datafile(21) = 'GRACE_jpl_rl05m_20180122_SpatialMean.asc',
(PID.TID 0000.0001) >  gencost_name(21) = 'gmbp',
(PID.TID 0000.0001) >  gencost_wei1d(21) = 0.1583,
(PID.TID 0000.0001) >  gencost_spmin(21) = -990.,
(PID.TID 0000.0001) >  gencost_spmax(21) = 990.,
(PID.TID 0000.0001) >  gencost_spzero(21) = 0.,
(PID.TID 0000.0001) >  gencost_is1d(21)=.TRUE.,
(PID.TID 0000.0001) >  gencost_outputlevel(21)=1,
(PID.TID 0000.0001) >  mult_gencost(21) = 1.,
(PID.TID 0000.0001) >#
(PID.TID 0000.0001) >  gencost_avgperiod(22)  = 'month',
(PID.TID 0000.0001) >  gencost_barfile(22) = 'm_eta_dynmon',
(PID.TID 0000.0001) >  gencost_datafile(22) = '20180228_ensemble_average_gmsl_ref.asc',
(PID.TID 0000.0001) >  gencost_name(22) = 'gmsl',
(PID.TID 0000.0001) >  gencost_wei1d(22) = 0.00382,
(PID.TID 0000.0001) >  gencost_spmin(22) = -990.,
(PID.TID 0000.0001) >  gencost_spmax(22) = 990.,
(PID.TID 0000.0001) >  gencost_spzero(22) = 0.,
(PID.TID 0000.0001) >  gencost_is1d(22)=.TRUE.,
(PID.TID 0000.0001) >  gencost_outputlevel(22)=1,
(PID.TID 0000.0001) >  mult_gencost(22) = 1.,
(PID.TID 0000.0001) >#
(PID.TID 0000.0001) >  gencost_barfile(27) = 'm_etaday',
(PID.TID 0000.0001) >  gencost_datafile(27) = 'RADS_TJ_mar2018',
(PID.TID 0000.0001) >  gencost_startdate1(27) = 19920101,
(PID.TID 0000.0001) >  gencost_startdate2(27) = 00000,
(PID.TID 0000.0001) >  gencost_avgperiod(27)  = 'day',
(PID.TID 0000.0001) >  gencost_errfile(27) = 'slaerr_gridscale_r5_areascaled.err',
(PID.TID 0000.0001) >  gencost_spmin(27) = -990.,
(PID.TID 0000.0001) >  gencost_spmax(27) = 990.,
(PID.TID 0000.0001) >  gencost_spzero(27) = 0.,
(PID.TID 0000.0001) >  gencost_outputlevel(27)=1,
(PID.TID 0000.0001) >  mult_gencost(27) = 0.,
(PID.TID 0000.0001) >#
(PID.TID 0000.0001) >  gencost_avgperiod(28)  = 'month',
(PID.TID 0000.0001) >  gencost_barfile(28) = 'm_etamon',
(PID.TID 0000.0001) >  gencost_datafile(28) = '20180228_ensemble_average_gmsl_ref.asc',
(PID.TID 0000.0001) >  gencost_wei1d(28) = 0.00382,
(PID.TID 0000.0001) >  gencost_spmin(28) = -990.,
(PID.TID 0000.0001) >  gencost_spmax(28) = 990.,
(PID.TID 0000.0001) >  gencost_spzero(28) = 0.,
(PID.TID 0000.0001) >  gencost_is1d(28)=.TRUE.,
(PID.TID 0000.0001) >  gencost_outputlevel(28)=1,
(PID.TID 0000.0001) >  mult_gencost(28) = 0.,
(PID.TID 0000.0001) >#
(PID.TID 0000.0001) >  gencost_avgperiod(29)  = 'month',
(PID.TID 0000.0001) >  gencost_barfile(29) = 'm_bpmon',
(PID.TID 0000.0001) >  gencost_datafile(29) = 'GRACE_jpl_rl05m_20180122_SpatialMean.asc',
(PID.TID 0000.0001) >  gencost_wei1d(29) = 0.1583,
(PID.TID 0000.0001) >  gencost_spmin(29) = -990.,
(PID.TID 0000.0001) >  gencost_spmax(29) = 990.,
(PID.TID 0000.0001) >  gencost_spzero(29) = 0.,
(PID.TID 0000.0001) >  gencost_is1d(29)=.TRUE.,
(PID.TID 0000.0001) >  gencost_outputlevel(29)=1,
(PID.TID 0000.0001) >  mult_gencost(29) = 0.,
(PID.TID 0000.0001) >#
(PID.TID 0000.0001) >  gencost_avgperiod(30)  = 'day',
(PID.TID 0000.0001) >  gencost_barfile(30) = 'm_bpday',
(PID.TID 0000.0001) >  gencost_datafile(30) = 'GRACE_fake_daily',
(PID.TID 0000.0001) >  gencost_errfile(30) = 'GRACE_jpl_rl05m_20180122_err_areascaled',
(PID.TID 0000.0001) >  gencost_spmin(30) = -990.,
(PID.TID 0000.0001) >  gencost_spmax(30) = 990.,
(PID.TID 0000.0001) >  gencost_spzero(30) = 0.,
(PID.TID 0000.0001) >  gencost_outputlevel(30)=1,
(PID.TID 0000.0001) >  mult_gencost(30) = 0.,
(PID.TID 0000.0001) >#
(PID.TID 0000.0001) >  gencost_avgperiod(31)  = 'day',
(PID.TID 0000.0001) >  gencost_barfile(31) = 'm_bp_nopabarday',
(PID.TID 0000.0001) >  gencost_datafile(31) = 'GRACE_fake_daily'
(PID.TID 0000.0001) >  gencost_errfile(31) = 'GRACE_jpl_rl05m_20180122_err_areascaled',
(PID.TID 0000.0001) >  gencost_spmin(31) = -990.,
(PID.TID 0000.0001) >  gencost_spmax(31) = 990.,
(PID.TID 0000.0001) >  gencost_spzero(31) = 0.,
(PID.TID 0000.0001) >  gencost_outputlevel(31)=1,
(PID.TID 0000.0001) >  mult_gencost(31) = 0.,
(PID.TID 0000.0001) > /
(PID.TID 0000.0001) >#
(PID.TID 0000.0001) 
(PID.TID 0000.0001) ECCO_READPARMS: finished reading #1: ecco_cost_nml
(PID.TID 0000.0001) ECCO_READPARMS: finished reading #2: ecco_gencost_nml
(PID.TID 0000.0001) ECCO_READPARMS: done
(PID.TID 0000.0001) PROFILES_READPARMS: opening data.profiles
(PID.TID 0000.0001)  OPEN_COPY_DATA_FILE: opening file data.profiles
(PID.TID 0000.0001) // =======================================================
(PID.TID 0000.0001) // Parameter file "data.profiles"
(PID.TID 0000.0001) // =======================================================
(PID.TID 0000.0001) >#
(PID.TID 0000.0001) ># ******************
(PID.TID 0000.0001) ># PROFILES cost function
(PID.TID 0000.0001) ># ******************
(PID.TID 0000.0001) > &PROFILES_NML
(PID.TID 0000.0001) >#
(PID.TID 0000.0001) > profilesDir='profiles',
(PID.TID 0000.0001) > profilesDoGenGrid=.TRUE.,
(PID.TID 0000.0001) >#
(PID.TID 0000.0001) > profiles_mean_indsamples(1) = 9,
(PID.TID 0000.0001) > profiles_mean_indsamples(2) = 9,
(PID.TID 0000.0001) >
(PID.TID 0000.0001) > profilesfiles(1)= 'ARGO_20190131_95to13',
(PID.TID 0000.0001) > profilesfiles(2)= 'ARGO_20190131_14to17',
(PID.TID 0000.0001) > profilesfiles(3)= 'APB_20190131_97to04',
(PID.TID 0000.0001) > profilesfiles(4)= 'CTD_20190131_92to05',
(PID.TID 0000.0001) > profilesfiles(5)= 'GLD_20190131_02to11',
(PID.TID 0000.0001) > profilesfiles(6)= 'GLD_20190131_12to13',
(PID.TID 0000.0001) > profilesfiles(7)= 'GLD_20190131_14to15',
(PID.TID 0000.0001) > profilesfiles(8)= 'MRB_20190131_92to03',
(PID.TID 0000.0001) > profilesfiles(9)= 'MRB_20190131_04to04',
(PID.TID 0000.0001) > profilesfiles(10)= 'XBT_20190131_92to05',
(PID.TID 0000.0001) > profilesfiles(11)= 'XBT_20190131_06to17',
(PID.TID 0000.0001) > profilesfiles(12)= 'ITP_20190131_04to13',
(PID.TID 0000.0001) >#profilesfiles(13)= 'beaufortgyremooring_GAMMA_20150915',
(PID.TID 0000.0001) >#profilesfiles(14)= 'beringstraitmooring_GAMMA_20150915',
(PID.TID 0000.0001) >#profilesfiles(15)= 'framstraitmooring_GAMMA_20150915',
(PID.TID 0000.0001) >#profilesfiles(16)= 'climode_GAMMA_20150915',
(PID.TID 0000.0001) >#profilesfiles(17)= 'davisstraitmooring_GAMMA_20150915',
(PID.TID 0000.0001) > profilesfiles(18)= 'GLD_20190131_16to17',
(PID.TID 0000.0001) > profilesfiles(19)= 'GOSHIP_20190131_92to17',
(PID.TID 0000.0001) > profilesfiles(20)= 'MRB_20190131_05to05',
(PID.TID 0000.0001) > profilesfiles(21)= 'MRB_20190131_06to17',
(PID.TID 0000.0001) > profilesfiles(22)= 'CTD_20190131_06to17',
(PID.TID 0000.0001) > profilesfiles(23)= 'ITP_20190131_14to17',
(PID.TID 0000.0001) > profilesfiles(24)= 'APB_20190131_05to05',
(PID.TID 0000.0001) > profilesfiles(25)= 'APB_20190131_06to06',
(PID.TID 0000.0001) > profilesfiles(26)= 'APB_20190131_07to07',
(PID.TID 0000.0001) > profilesfiles(27)= 'APB_20190131_08to09',
(PID.TID 0000.0001) > profilesfiles(28)= 'APB_20190131_10to17',
(PID.TID 0000.0001) > profilesfiles(29)= 'CCHDO_20190131_92to17',
(PID.TID 0000.0001) >#
(PID.TID 0000.0001) > mult_profiles_mean(1)   = 1.,
(PID.TID 0000.0001) > mult_profiles_mean(2)   = 1.,
(PID.TID 0000.0001) >
(PID.TID 0000.0001) > mult_profiles(1,1)   = 1.,
(PID.TID 0000.0001) > mult_profiles(1,2)   = 1.,
(PID.TID 0000.0001) > mult_profiles(2,1)   = 1.,
(PID.TID 0000.0001) > mult_profiles(2,2)   = 1.,
(PID.TID 0000.0001) > mult_profiles(3,1)   = 1.,
(PID.TID 0000.0001) > mult_profiles(3,2)   = 1.,
(PID.TID 0000.0001) > mult_profiles(4,1)   = 1.,
(PID.TID 0000.0001) > mult_profiles(4,2)   = 1.,
(PID.TID 0000.0001) > mult_profiles(5,1)   = 1.,
(PID.TID 0000.0001) > mult_profiles(5,2)   = 1.,
(PID.TID 0000.0001) > mult_profiles(6,1)   = 1.,
(PID.TID 0000.0001) > mult_profiles(6,2)   = 1.,
(PID.TID 0000.0001) > mult_profiles(7,1)   = 1.,
(PID.TID 0000.0001) > mult_profiles(7,2)   = 1.,
(PID.TID 0000.0001) > mult_profiles(8,1)   = 1.,
(PID.TID 0000.0001) > mult_profiles(8,2)   = 1.,
(PID.TID 0000.0001) > mult_profiles(9,1)   = 1.,
(PID.TID 0000.0001) > mult_profiles(9,2)   = 1.,
(PID.TID 0000.0001) > mult_profiles(10,1)   = 1.,
(PID.TID 0000.0001) > mult_profiles(10,2)   = 1.,
(PID.TID 0000.0001) > mult_profiles(11,1)   = 1.,
(PID.TID 0000.0001) > mult_profiles(11,2)   = 1.,
(PID.TID 0000.0001) > mult_profiles(12,1)   = 1.,
(PID.TID 0000.0001) > mult_profiles(12,2)   = 1.,
(PID.TID 0000.0001) > mult_profiles(13,1)   = 0.2,
(PID.TID 0000.0001) > mult_profiles(13,2)   = 0.2,
(PID.TID 0000.0001) > mult_profiles(14,1)   = 1.,
(PID.TID 0000.0001) > mult_profiles(14,2)   = 1.,
(PID.TID 0000.0001) > mult_profiles(15,1)   = 0.013,
(PID.TID 0000.0001) > mult_profiles(15,2)   = 0.013,
(PID.TID 0000.0001) > mult_profiles(16,1)   = 1.,
(PID.TID 0000.0001) > mult_profiles(16,2)   = 1.,
(PID.TID 0000.0001) > mult_profiles(17,1)   = 0.0165,
(PID.TID 0000.0001) > mult_profiles(17,2)   = 0.0165,
(PID.TID 0000.0001) > mult_profiles(18,1)   = 1.,
(PID.TID 0000.0001) > mult_profiles(18,2)   = 1.,
(PID.TID 0000.0001) > mult_profiles(19,1)   = 1.,
(PID.TID 0000.0001) > mult_profiles(19,2)   = 1.,
(PID.TID 0000.0001) > mult_profiles(20,1)   = 1.,
(PID.TID 0000.0001) > mult_profiles(20,2)   = 1.,
(PID.TID 0000.0001) > mult_profiles(21,1)   = 1.,
(PID.TID 0000.0001) > mult_profiles(21,2)   = 1.,
(PID.TID 0000.0001) > mult_profiles(22,1)   = 1.,
(PID.TID 0000.0001) > mult_profiles(22,2)   = 1.,
(PID.TID 0000.0001) > mult_profiles(23,1)   = 1.,
(PID.TID 0000.0001) > mult_profiles(23,2)   = 1.,
(PID.TID 0000.0001) > mult_profiles(24,1)   = 1.,
(PID.TID 0000.0001) > mult_profiles(24,2)   = 1.,
(PID.TID 0000.0001) > mult_profiles(25,1)   = 1.,
(PID.TID 0000.0001) > mult_profiles(25,2)   = 1.,
(PID.TID 0000.0001) > mult_profiles(26,1)   = 1.,
(PID.TID 0000.0001) > mult_profiles(26,2)   = 1.,
(PID.TID 0000.0001) > mult_profiles(27,1)   = 1.,
(PID.TID 0000.0001) > mult_profiles(27,2)   = 1.,
(PID.TID 0000.0001) > mult_profiles(28,1)   = 1.,
(PID.TID 0000.0001) > mult_profiles(28,2)   = 1.,
(PID.TID 0000.0001) > mult_profiles(29,1)   = 1.,
(PID.TID 0000.0001) > mult_profiles(29,2)   = 1.,
(PID.TID 0000.0001) >
(PID.TID 0000.0001) >#
(PID.TID 0000.0001) > /
(PID.TID 0000.0001) 
(PID.TID 0000.0001) PROFILES_READPARMS: finished reading data.profiles
(PID.TID 0000.0001)  SBO_READPARMS: opening data.sbo
(PID.TID 0000.0001)  OPEN_COPY_DATA_FILE: opening file data.sbo
(PID.TID 0000.0001) // =======================================================
(PID.TID 0000.0001) // Parameter file "data.sbo"
(PID.TID 0000.0001) // =======================================================
(PID.TID 0000.0001) >#
(PID.TID 0000.0001) ># *******************
(PID.TID 0000.0001) ># SBO Parameters
(PID.TID 0000.0001) ># *******************
(PID.TID 0000.0001) > &SBO_PARM01
(PID.TID 0000.0001) > /
(PID.TID 0000.0001) 
(PID.TID 0000.0001)  SBO_READPARMS: finished reading data.sbo
(PID.TID 0000.0001)  DIAGNOSTICS_READPARMS: opening data.diagnostics
(PID.TID 0000.0001)  OPEN_COPY_DATA_FILE: opening file data.diagnostics
(PID.TID 0000.0001) // =======================================================
(PID.TID 0000.0001) // Parameter file "data.diagnostics"
(PID.TID 0000.0001) // =======================================================
(PID.TID 0000.0001) ># Diagnostic Package Choices
(PID.TID 0000.0001) >#-----------------
(PID.TID 0000.0001) ># for each output-stream:
(PID.TID 0000.0001) >#  filename(n) : prefix of the output file name (only 8.c long) for outp.stream n
(PID.TID 0000.0001) >#  frequency(n):< 0 : write snap-shot output every multiple of |frequency| (iter)
(PID.TID 0000.0001) >#               > 0 : write time-average output every multiple of frequency (iter)
(PID.TID 0000.0001) >#  levels(:,n) : list of levels to write to file (Notes: declared as REAL)
(PID.TID 0000.0001) >#                 when this entry is missing, select all common levels of this list
(PID.TID 0000.0001) >#  fields(:,n) : list of diagnostics fields (8.c) (see "available_diagnostics" file
(PID.TID 0000.0001) >#                 for the list of all available diag. in this particular config)
(PID.TID 0000.0001) >#--------------------------------------------------------------------
(PID.TID 0000.0001) >#
(PID.TID 0000.0001) > &diagnostics_list
(PID.TID 0000.0001) >#
(PID.TID 0000.0001) >    dumpatlast = .TRUE.,
(PID.TID 0000.0001) >#---
(PID.TID 0000.0001) > frequency(1) = 2635200.0,
(PID.TID 0000.0001) > fields(1,1) = 'ADVr_SLT',
(PID.TID 0000.0001) > filename(1) = 'diags/ADVr_SLT_mon_mean/ADVr_SLT_mon_mean',
(PID.TID 0000.0001) >#---
(PID.TID 0000.0001) > frequency(2) = 2635200.0,
(PID.TID 0000.0001) > fields(1,2) = 'ADVr_TH',
(PID.TID 0000.0001) > filename(2) = 'diags/ADVr_TH_mon_mean/ADVr_TH_mon_mean',
(PID.TID 0000.0001) >#---
(PID.TID 0000.0001) > frequency(3) = 2635200.0,
(PID.TID 0000.0001) > fields(1,3) = 'ADVxHEFF',
(PID.TID 0000.0001) > filename(3) = 'diags/ADVxHEFF_mon_mean/ADVxHEFF_mon_mean',
(PID.TID 0000.0001) >#---
(PID.TID 0000.0001) > frequency(4) = 2635200.0,
(PID.TID 0000.0001) > fields(1,4) = 'ADVx_SLT',
(PID.TID 0000.0001) > filename(4) = 'diags/ADVx_SLT_mon_mean/ADVx_SLT_mon_mean',
(PID.TID 0000.0001) >#---
(PID.TID 0000.0001) > frequency(5) = 2635200.0,
(PID.TID 0000.0001) > fields(1,5) = 'ADVxSNOW',
(PID.TID 0000.0001) > filename(5) = 'diags/ADVxSNOW_mon_mean/ADVxSNOW_mon_mean',
(PID.TID 0000.0001) >#---
(PID.TID 0000.0001) > frequency(6) = 2635200.0,
(PID.TID 0000.0001) > fields(1,6) = 'ADVx_TH',
(PID.TID 0000.0001) > filename(6) = 'diags/ADVx_TH_mon_mean/ADVx_TH_mon_mean',
(PID.TID 0000.0001) >#---
(PID.TID 0000.0001) > frequency(7) = 2635200.0,
(PID.TID 0000.0001) > fields(1,7) = 'ADVyHEFF',
(PID.TID 0000.0001) > filename(7) = 'diags/ADVyHEFF_mon_mean/ADVyHEFF_mon_mean',
(PID.TID 0000.0001) >#---
(PID.TID 0000.0001) > frequency(8) = 2635200.0,
(PID.TID 0000.0001) > fields(1,8) = 'ADVy_SLT',
(PID.TID 0000.0001) > filename(8) = 'diags/ADVy_SLT_mon_mean/ADVy_SLT_mon_mean',
(PID.TID 0000.0001) >#---
(PID.TID 0000.0001) > frequency(9) = 2635200.0,
(PID.TID 0000.0001) > fields(1,9) = 'ADVySNOW',
(PID.TID 0000.0001) > filename(9) = 'diags/ADVySNOW_mon_mean/ADVySNOW_mon_mean',
(PID.TID 0000.0001) >#---
(PID.TID 0000.0001) > frequency(10) = 2635200.0,
(PID.TID 0000.0001) > fields(1,10) = 'ADVy_TH',
(PID.TID 0000.0001) > filename(10) = 'diags/ADVy_TH_mon_mean/ADVy_TH_mon_mean',
(PID.TID 0000.0001) >#---
(PID.TID 0000.0001) > frequency(11) = 2635200.0,
(PID.TID 0000.0001) > fields(1,11) = 'DFrE_SLT',
(PID.TID 0000.0001) > filename(11) = 'diags/DFrE_SLT_mon_mean/DFrE_SLT_mon_mean',
(PID.TID 0000.0001) >#---
(PID.TID 0000.0001) > frequency(12) = 2635200.0,
(PID.TID 0000.0001) > fields(1,12) = 'DFrE_TH',
(PID.TID 0000.0001) > filename(12) = 'diags/DFrE_TH_mon_mean/DFrE_TH_mon_mean',
(PID.TID 0000.0001) >#---
(PID.TID 0000.0001) > frequency(13) = 2635200.0,
(PID.TID 0000.0001) > fields(1,13) = 'DFrI_SLT',
(PID.TID 0000.0001) > filename(13) = 'diags/DFrI_SLT_mon_mean/DFrI_SLT_mon_mean',
(PID.TID 0000.0001) >#---
(PID.TID 0000.0001) > frequency(14) = 2635200.0,
(PID.TID 0000.0001) > fields(1,14) = 'DFrI_TH',
(PID.TID 0000.0001) > filename(14) = 'diags/DFrI_TH_mon_mean/DFrI_TH_mon_mean',
(PID.TID 0000.0001) >#---
(PID.TID 0000.0001) > frequency(15) = 2635200.0,
(PID.TID 0000.0001) > fields(1,15) = 'DFxEHEFF',
(PID.TID 0000.0001) > filename(15) = 'diags/DFxEHEFF_mon_mean/DFxEHEFF_mon_mean',
(PID.TID 0000.0001) >#---
(PID.TID 0000.0001) > frequency(16) = 2635200.0,
(PID.TID 0000.0001) > fields(1,16) = 'DFxE_SLT',
(PID.TID 0000.0001) > filename(16) = 'diags/DFxE_SLT_mon_mean/DFxE_SLT_mon_mean',
(PID.TID 0000.0001) >#---
(PID.TID 0000.0001) > frequency(17) = 2635200.0,
(PID.TID 0000.0001) > fields(1,17) = 'DFxESNOW',
(PID.TID 0000.0001) > filename(17) = 'diags/DFxESNOW_mon_mean/DFxESNOW_mon_mean',
(PID.TID 0000.0001) >#---
(PID.TID 0000.0001) > frequency(18) = 2635200.0,
(PID.TID 0000.0001) > fields(1,18) = 'DFxE_TH',
(PID.TID 0000.0001) > filename(18) = 'diags/DFxE_TH_mon_mean/DFxE_TH_mon_mean',
(PID.TID 0000.0001) >#---
(PID.TID 0000.0001) > frequency(19) = 2635200.0,
(PID.TID 0000.0001) > fields(1,19) = 'DFyEHEFF',
(PID.TID 0000.0001) > filename(19) = 'diags/DFyEHEFF_mon_mean/DFyEHEFF_mon_mean',
(PID.TID 0000.0001) >#---
(PID.TID 0000.0001) > frequency(20) = 2635200.0,
(PID.TID 0000.0001) > fields(1,20) = 'DFyE_SLT',
(PID.TID 0000.0001) > filename(20) = 'diags/DFyE_SLT_mon_mean/DFyE_SLT_mon_mean',
(PID.TID 0000.0001) >#---
(PID.TID 0000.0001) > frequency(21) = 2635200.0,
(PID.TID 0000.0001) > fields(1,21) = 'DFyESNOW',
(PID.TID 0000.0001) > filename(21) = 'diags/DFyESNOW_mon_mean/DFyESNOW_mon_mean',
(PID.TID 0000.0001) >#---
(PID.TID 0000.0001) > frequency(22) = 2635200.0,
(PID.TID 0000.0001) > fields(1,22) = 'DFyE_TH',
(PID.TID 0000.0001) > filename(22) = 'diags/DFyE_TH_mon_mean/DFyE_TH_mon_mean',
(PID.TID 0000.0001) >#---
(PID.TID 0000.0001) > frequency(23) = 2635200.0,
(PID.TID 0000.0001) > fields(1,23) = 'DRHODR',
(PID.TID 0000.0001) > filename(23) = 'diags/DRHODR_mon_mean/DRHODR_mon_mean',
(PID.TID 0000.0001) >#---
(PID.TID 0000.0001) > frequency(24) = 2635200.0,
(PID.TID 0000.0001) > fields(1,24) = 'ETAN',
(PID.TID 0000.0001) > filename(24) = 'diags/ETAN_mon_mean/ETAN_mon_mean',
(PID.TID 0000.0001) >#---
(PID.TID 0000.0001) > frequency(25) = 2635200.0,
(PID.TID 0000.0001) > fields(1,25) = 'EXFaqh',
(PID.TID 0000.0001) > filename(25) = 'diags/EXFaqh_mon_mean/EXFaqh_mon_mean',
(PID.TID 0000.0001) >#---
(PID.TID 0000.0001) > frequency(26) = 2635200.0,
(PID.TID 0000.0001) > fields(1,26) = 'EXFatemp',
(PID.TID 0000.0001) > filename(26) = 'diags/EXFatemp_mon_mean/EXFatemp_mon_mean',
(PID.TID 0000.0001) >#---
(PID.TID 0000.0001) > frequency(27) = 2635200.0,
(PID.TID 0000.0001) > fields(1,27) = 'EXFempmr',
(PID.TID 0000.0001) > filename(27) = 'diags/EXFempmr_mon_mean/EXFempmr_mon_mean',
(PID.TID 0000.0001) >#---
(PID.TID 0000.0001) > frequency(28) = 2635200.0,
(PID.TID 0000.0001) > fields(1,28) = 'EXFevap',
(PID.TID 0000.0001) > filename(28) = 'diags/EXFevap_mon_mean/EXFevap_mon_mean',
(PID.TID 0000.0001) >#---
(PID.TID 0000.0001) > frequency(29) = 2635200.0,
(PID.TID 0000.0001) > fields(1,29) = 'EXFhl',
(PID.TID 0000.0001) > filename(29) = 'diags/EXFhl_mon_mean/EXFhl_mon_mean',
(PID.TID 0000.0001) >#---
(PID.TID 0000.0001) > frequency(30) = 2635200.0,
(PID.TID 0000.0001) > fields(1,30) = 'EXFhs',
(PID.TID 0000.0001) > filename(30) = 'diags/EXFhs_mon_mean/EXFhs_mon_mean',
(PID.TID 0000.0001) >#---
(PID.TID 0000.0001) > frequency(31) = 2635200.0,
(PID.TID 0000.0001) > fields(1,31) = 'EXFlwdn',
(PID.TID 0000.0001) > filename(31) = 'diags/EXFlwdn_mon_mean/EXFlwdn_mon_mean',
(PID.TID 0000.0001) >#---
(PID.TID 0000.0001) > frequency(32) = 2635200.0,
(PID.TID 0000.0001) > fields(1,32) = 'EXFlwnet',
(PID.TID 0000.0001) > filename(32) = 'diags/EXFlwnet_mon_mean/EXFlwnet_mon_mean',
(PID.TID 0000.0001) >#---
(PID.TID 0000.0001) > frequency(33) = 2635200.0,
(PID.TID 0000.0001) > fields(1,33) = 'EXFpreci',
(PID.TID 0000.0001) > filename(33) = 'diags/EXFpreci_mon_mean/EXFpreci_mon_mean',
(PID.TID 0000.0001) >#---
(PID.TID 0000.0001) > frequency(34) = 2635200.0,
(PID.TID 0000.0001) > fields(1,34) = 'EXFqnet',
(PID.TID 0000.0001) > filename(34) = 'diags/EXFqnet_mon_mean/EXFqnet_mon_mean',
(PID.TID 0000.0001) >#---
(PID.TID 0000.0001) > frequency(35) = 2635200.0,
(PID.TID 0000.0001) > fields(1,35) = 'EXFroff',
(PID.TID 0000.0001) > filename(35) = 'diags/EXFroff_mon_mean/EXFroff_mon_mean',
(PID.TID 0000.0001) >#---
(PID.TID 0000.0001) > frequency(36) = 2635200.0,
(PID.TID 0000.0001) > fields(1,36) = 'EXFswdn',
(PID.TID 0000.0001) > filename(36) = 'diags/EXFswdn_mon_mean/EXFswdn_mon_mean',
(PID.TID 0000.0001) >#---
(PID.TID 0000.0001) > frequency(37) = 2635200.0,
(PID.TID 0000.0001) > fields(1,37) = 'EXFswnet',
(PID.TID 0000.0001) > filename(37) = 'diags/EXFswnet_mon_mean/EXFswnet_mon_mean',
(PID.TID 0000.0001) >#---
(PID.TID 0000.0001) > frequency(38) = 2635200.0,
(PID.TID 0000.0001) > fields(1,38) = 'EXFtaux',
(PID.TID 0000.0001) > filename(38) = 'diags/EXFtaux_mon_mean/EXFtaux_mon_mean',
(PID.TID 0000.0001) >#---
(PID.TID 0000.0001) > frequency(39) = 2635200.0,
(PID.TID 0000.0001) > fields(1,39) = 'EXFtauy',
(PID.TID 0000.0001) > filename(39) = 'diags/EXFtauy_mon_mean/EXFtauy_mon_mean',
(PID.TID 0000.0001) >#---
(PID.TID 0000.0001) > frequency(40) = 2635200.0,
(PID.TID 0000.0001) > fields(1,40) = 'EXFuwind',
(PID.TID 0000.0001) > filename(40) = 'diags/EXFuwind_mon_mean/EXFuwind_mon_mean',
(PID.TID 0000.0001) >#---
(PID.TID 0000.0001) > frequency(41) = 2635200.0,
(PID.TID 0000.0001) > fields(1,41) = 'EXFvwind',
(PID.TID 0000.0001) > filename(41) = 'diags/EXFvwind_mon_mean/EXFvwind_mon_mean',
(PID.TID 0000.0001) >#---
(PID.TID 0000.0001) > frequency(42) = 2635200.0,
(PID.TID 0000.0001) > fields(1,42) = 'EXFwspee',
(PID.TID 0000.0001) > filename(42) = 'diags/EXFwspee_mon_mean/EXFwspee_mon_mean',
(PID.TID 0000.0001) >#---
(PID.TID 0000.0001) > frequency(43) = 2635200.0,
(PID.TID 0000.0001) > fields(1,43) = 'GM_PsiX',
(PID.TID 0000.0001) > filename(43) = 'diags/GM_PsiX_mon_mean/GM_PsiX_mon_mean',
(PID.TID 0000.0001) >#---
(PID.TID 0000.0001) > frequency(44) = 2635200.0,
(PID.TID 0000.0001) > fields(1,44) = 'GM_PsiY',
(PID.TID 0000.0001) > filename(44) = 'diags/GM_PsiY_mon_mean/GM_PsiY_mon_mean',
(PID.TID 0000.0001) >#---
(PID.TID 0000.0001) > frequency(45) = 2635200.0,
(PID.TID 0000.0001) > fields(1,45) = 'MXLDEPTH',
(PID.TID 0000.0001) > filename(45) = 'diags/MXLDEPTH_mon_mean/MXLDEPTH_mon_mean',
(PID.TID 0000.0001) >#---
(PID.TID 0000.0001) > frequency(46) = 2635200.0,
(PID.TID 0000.0001) > fields(1,46) = 'oceFWflx',
(PID.TID 0000.0001) > filename(46) = 'diags/oceFWflx_mon_mean/oceFWflx_mon_mean',
(PID.TID 0000.0001) >#---
(PID.TID 0000.0001) > frequency(47) = 2635200.0,
(PID.TID 0000.0001) > fields(1,47) = 'oceQnet',
(PID.TID 0000.0001) > filename(47) = 'diags/oceQnet_mon_mean/oceQnet_mon_mean',
(PID.TID 0000.0001) >#---
(PID.TID 0000.0001) > frequency(48) = 2635200.0,
(PID.TID 0000.0001) > fields(1,48) = 'oceQsw',
(PID.TID 0000.0001) > filename(48) = 'diags/oceQsw_mon_mean/oceQsw_mon_mean',
(PID.TID 0000.0001) >#---
(PID.TID 0000.0001) > frequency(49) = 2635200.0,
(PID.TID 0000.0001) > fields(1,49) = 'oceSPDep',
(PID.TID 0000.0001) > filename(49) = 'diags/oceSPDep_mon_mean/oceSPDep_mon_mean',
(PID.TID 0000.0001) >#---
(PID.TID 0000.0001) > frequency(50) = 2635200.0,
(PID.TID 0000.0001) > fields(1,50) = 'oceSPflx',
(PID.TID 0000.0001) > filename(50) = 'diags/oceSPflx_mon_mean/oceSPflx_mon_mean',
(PID.TID 0000.0001) >#---
(PID.TID 0000.0001) > frequency(51) = 2635200.0,
(PID.TID 0000.0001) > fields(1,51) = 'oceSPtnd',
(PID.TID 0000.0001) > filename(51) = 'diags/oceSPtnd_mon_mean/oceSPtnd_mon_mean',
(PID.TID 0000.0001) >#---
(PID.TID 0000.0001) > frequency(52) = 2635200.0,
(PID.TID 0000.0001) > fields(1,52) = 'oceTAUX',
(PID.TID 0000.0001) > filename(52) = 'diags/oceTAUX_mon_mean/oceTAUX_mon_mean',
(PID.TID 0000.0001) >#---
(PID.TID 0000.0001) > frequency(53) = 2635200.0,
(PID.TID 0000.0001) > fields(1,53) = 'oceTAUY',
(PID.TID 0000.0001) > filename(53) = 'diags/oceTAUY_mon_mean/oceTAUY_mon_mean',
(PID.TID 0000.0001) >#---
(PID.TID 0000.0001) > frequency(54) = 2635200.0,
(PID.TID 0000.0001) > fields(1,54) = 'PHIBOT',
(PID.TID 0000.0001) > filename(54) = 'diags/PHIBOT_mon_mean/PHIBOT_mon_mean',
(PID.TID 0000.0001) >#---
(PID.TID 0000.0001) > frequency(55) = 2635200.0,
(PID.TID 0000.0001) > fields(1,55) = 'PHIHYD',
(PID.TID 0000.0001) > filename(55) = 'diags/PHIHYD_mon_mean/PHIHYD_mon_mean',
(PID.TID 0000.0001) >#---
(PID.TID 0000.0001) > frequency(56) = 2635200.0,
(PID.TID 0000.0001) > fields(1,56) = 'PHIHYDcR',
(PID.TID 0000.0001) > filename(56) = 'diags/PHIHYDcR_mon_mean/PHIHYDcR_mon_mean',
(PID.TID 0000.0001) >#---
(PID.TID 0000.0001) > frequency(57) = 2635200.0,
(PID.TID 0000.0001) > fields(1,57) = 'RHOAnoma',
(PID.TID 0000.0001) > filename(57) = 'diags/RHOAnoma_mon_mean/RHOAnoma_mon_mean',
(PID.TID 0000.0001) >#---
(PID.TID 0000.0001) > frequency(58) = 2635200.0,
(PID.TID 0000.0001) > fields(1,58) = 'SALT',
(PID.TID 0000.0001) > filename(58) = 'diags/SALT_mon_mean/SALT_mon_mean',
(PID.TID 0000.0001) >#---
(PID.TID 0000.0001) > frequency(59) = 2635200.0,
(PID.TID 0000.0001) > fields(1,59) = 'SFLUX',
(PID.TID 0000.0001) > filename(59) = 'diags/SFLUX_mon_mean/SFLUX_mon_mean',
(PID.TID 0000.0001) >#---
(PID.TID 0000.0001) > frequency(60) = 2635200.0,
(PID.TID 0000.0001) > fields(1,60) = 'SIarea',
(PID.TID 0000.0001) > filename(60) = 'diags/SIarea_mon_mean/SIarea_mon_mean',
(PID.TID 0000.0001) >#---
(PID.TID 0000.0001) > frequency(61) = 2635200.0,
(PID.TID 0000.0001) > fields(1,61) = 'SIatmFW',
(PID.TID 0000.0001) > filename(61) = 'diags/SIatmFW_mon_mean/SIatmFW_mon_mean',
(PID.TID 0000.0001) >#---
(PID.TID 0000.0001) > frequency(62) = 2635200.0,
(PID.TID 0000.0001) > fields(1,62) = 'SIatmQnt',
(PID.TID 0000.0001) > filename(62) = 'diags/SIatmQnt_mon_mean/SIatmQnt_mon_mean',
(PID.TID 0000.0001) >#---
(PID.TID 0000.0001) > frequency(63) = 2635200.0,
(PID.TID 0000.0001) > fields(1,63) = 'sIceLoad',
(PID.TID 0000.0001) > filename(63) = 'diags/sIceLoad_mon_mean/sIceLoad_mon_mean',
(PID.TID 0000.0001) >#---
(PID.TID 0000.0001) > frequency(64) = 2635200.0,
(PID.TID 0000.0001) > fields(1,64) = 'SIheff',
(PID.TID 0000.0001) > filename(64) = 'diags/SIheff_mon_mean/SIheff_mon_mean',
(PID.TID 0000.0001) >#---
(PID.TID 0000.0001) > frequency(65) = 2635200.0,
(PID.TID 0000.0001) > fields(1,65) = 'SIhsnow',
(PID.TID 0000.0001) > filename(65) = 'diags/SIhsnow_mon_mean/SIhsnow_mon_mean',
(PID.TID 0000.0001) >#---
(PID.TID 0000.0001) >frequency(66) = 2635200.0,
(PID.TID 0000.0001) >fields(1,66) = 'SIsnPrcp',
(PID.TID 0000.0001) >filename(66) = 'diags/SIsnPrcp_mon_mean/SIsnPrcp_mon_mean',
(PID.TID 0000.0001) >#---
(PID.TID 0000.0001) >frequency(67) = 2635200.0,
(PID.TID 0000.0001) >fields(1,67) = 'SIuice',
(PID.TID 0000.0001) >filename(67) = 'diags/SIuice_mon_mean/SIuice_mon_mean',
(PID.TID 0000.0001) >#---
(PID.TID 0000.0001) >frequency(68) = 2635200.0,
(PID.TID 0000.0001) >fields(1,68) = 'SIvice',
(PID.TID 0000.0001) >filename(68) = 'diags/SIvice_mon_mean/SIvice_mon_mean',
(PID.TID 0000.0001) >#---
(PID.TID 0000.0001) >frequency(69) = 2635200.0,
(PID.TID 0000.0001) >fields(1,69) = 'TFLUX',
(PID.TID 0000.0001) >filename(69) = 'diags/TFLUX_mon_mean/TFLUX_mon_mean',
(PID.TID 0000.0001) >#---
(PID.TID 0000.0001) >frequency(70) = 2635200.0,
(PID.TID 0000.0001) >fields(1,70) = 'THETA',
(PID.TID 0000.0001) >filename(70) = 'diags/THETA_mon_mean/THETA_mon_mean',
(PID.TID 0000.0001) >#---
(PID.TID 0000.0001) >frequency(71) = 2635200.0,
(PID.TID 0000.0001) >fields(1,71) = 'Um_dPHdx',
(PID.TID 0000.0001) >filename(71) = 'diags/Um_dPHdx_mon_mean/Um_dPHdx_mon_mean',
(PID.TID 0000.0001) >#---
(PID.TID 0000.0001) >frequency(72) = 2635200.0,
(PID.TID 0000.0001) >fields(1,72) = 'UVEL',
(PID.TID 0000.0001) >filename(72) = 'diags/UVEL_mon_mean/UVEL_mon_mean',
(PID.TID 0000.0001) >#---
(PID.TID 0000.0001) >frequency(73) = 2635200.0,
(PID.TID 0000.0001) >fields(1,73) = 'UVELMASS',
(PID.TID 0000.0001) >filename(73) = 'diags/UVELMASS_mon_mean/UVELMASS_mon_mean',
(PID.TID 0000.0001) >#---
(PID.TID 0000.0001) >frequency(74) = 2635200.0,
(PID.TID 0000.0001) >fields(1,74) = 'Vm_dPHdy',
(PID.TID 0000.0001) >filename(74) = 'diags/Vm_dPHdy_mon_mean/Vm_dPHdy_mon_mean',
(PID.TID 0000.0001) >#---
(PID.TID 0000.0001) >frequency(75) = 2635200.0,
(PID.TID 0000.0001) >fields(1,75) = 'VVEL',
(PID.TID 0000.0001) >filename(75) = 'diags/VVEL_mon_mean/VVEL_mon_mean',
(PID.TID 0000.0001) >#---
(PID.TID 0000.0001) >frequency(76) = 2635200.0,
(PID.TID 0000.0001) >fields(1,76) = 'VVELMASS',
(PID.TID 0000.0001) >filename(76) = 'diags/VVELMASS_mon_mean/VVELMASS_mon_mean',
(PID.TID 0000.0001) >#---
(PID.TID 0000.0001) >frequency(77) = 2635200.0,
(PID.TID 0000.0001) >fields(1,77) = 'WVELMASS',
(PID.TID 0000.0001) >filename(77) = 'diags/WVELMASS_mon_mean/WVELMASS_mon_mean',
(PID.TID 0000.0001) >#---
(PID.TID 0000.0001) >frequency(86) = -2635200.0,
(PID.TID 0000.0001) >fields(1,86) = 'ETAN',
(PID.TID 0000.0001) >timePhase(86) = 0,
(PID.TID 0000.0001) >filename(86) = 'diags/ETAN_mon_inst/ETAN_mon_inst',
(PID.TID 0000.0001) >#---
(PID.TID 0000.0001) >frequency(87) = -2635200.0,
(PID.TID 0000.0001) >fields(1,87) = 'SALT',
(PID.TID 0000.0001) >timePhase(87) = 0,
(PID.TID 0000.0001) >filename(87) = 'diags/SALT_mon_inst/SALT_mon_inst',
(PID.TID 0000.0001) >#---
(PID.TID 0000.0001) >frequency(88) = -2635200.0,
(PID.TID 0000.0001) >fields(1,88) = 'THETA',
(PID.TID 0000.0001) >timePhase(88) = 0,
(PID.TID 0000.0001) >filename(88) = 'diags/THETA_mon_inst/THETA_mon_inst',
(PID.TID 0000.0001) >#---
(PID.TID 0000.0001) >frequency(89) = -2635200.0,
(PID.TID 0000.0001) >fields(1,89) = 'SIheff',
(PID.TID 0000.0001) >timePhase(89) = 0,
(PID.TID 0000.0001) >filename(89) = 'diags/SIheff_mon_inst/SIheff_mon_inst',
(PID.TID 0000.0001) >#---
(PID.TID 0000.0001) >frequency(90) = -2635200.0,
(PID.TID 0000.0001) >fields(1,90) = 'SIhsnow',
(PID.TID 0000.0001) >timePhase(90) = 0,
(PID.TID 0000.0001) >filename(90) = 'diags/SIhsnow_mon_inst/SIhsnow_mon_inst',
(PID.TID 0000.0001) >#---
(PID.TID 0000.0001) >frequency(91) = 2635200.0,
(PID.TID 0000.0001) >fields(1,91) = 'SSH',
(PID.TID 0000.0001) >filename(91) = 'diags/SSH_mon_mean/SSH_mon_mean',
(PID.TID 0000.0001) >#---
(PID.TID 0000.0001) >frequency(92) = 2635200.0,
(PID.TID 0000.0001) >fields(1,92) = 'SSHIBC',
(PID.TID 0000.0001) >filename(92) = 'diags/SSHIBC_mon_mean/SSHIBC_mon_mean',
(PID.TID 0000.0001) >#---
(PID.TID 0000.0001) >frequency(93) = 2635200.0,
(PID.TID 0000.0001) >fields(1,93) = 'SSHNOIBC',
(PID.TID 0000.0001) >filename(93) = 'diags/SSHNOIBC_mon_mean/SSHNOIBC_mon_mean',
(PID.TID 0000.0001) >#---
(PID.TID 0000.0001) >frequency(94) = 2635200.0,
(PID.TID 0000.0001) >fields(1,94) = 'OBP',
(PID.TID 0000.0001) >filename(94) = 'diags/OBP_mon_mean/OBP_mon_mean',
(PID.TID 0000.0001) >#---
(PID.TID 0000.0001) >frequency(95) = 2635200.0,
(PID.TID 0000.0001) >fields(1,95) = 'OBPGMAP',
(PID.TID 0000.0001) >filename(95) = 'diags/OBPGMAP_mon_mean/OBPGMAP_mon_mean',
(PID.TID 0000.0001) >#---
(PID.TID 0000.0001) >frequency(96) = 2635200.0,
(PID.TID 0000.0001) >fields(1,96) = 'EXFpress',
(PID.TID 0000.0001) >filename(96) = 'diags/EXFpress_mon_mean/EXFpress_mon_mean',
(PID.TID 0000.0001) >#---
(PID.TID 0000.0001) > /
(PID.TID 0000.0001) >#
(PID.TID 0000.0001) >#
(PID.TID 0000.0001) ># Parameter for Diagnostics of per level statistics:
(PID.TID 0000.0001) >#-----------------
(PID.TID 0000.0001) ># for each output-stream:
(PID.TID 0000.0001) >#  stat_fname(n) : prefix of the output file name (only 8.c long) for outp.stream n
(PID.TID 0000.0001) >#  stat_freq(n):< 0 : write snap-shot output every |stat_freq| seconds
(PID.TID 0000.0001) >#               > 0 : write time-average output every stat_freq seconds
(PID.TID 0000.0001) >#  stat_phase(n)    : write at time = stat_phase + multiple of |stat_freq|
(PID.TID 0000.0001) >#  stat_region(:,n) : list of "regions" (default: 1 region only=global)
(PID.TID 0000.0001) >#  stat_fields(:,n) : list of diagnostics fields (8.c) (see "available_diagnostics.log"
(PID.TID 0000.0001) >#                 file for the list of all available diag. in this particular config)
(PID.TID 0000.0001) >#-----------------
(PID.TID 0000.0001) > &DIAG_STATIS_PARMS
(PID.TID 0000.0001) ># diagSt_regMaskFile='basin_masks_eccollc_90x50.bin',
(PID.TID 0000.0001) ># nSetRegMskFile=1,
(PID.TID 0000.0001) ># set_regMask(1)= 1,  1,  1,  1,  1,  1,  1,  1,  1,
(PID.TID 0000.0001) >#                 1,  1,  1,  1,  1,  1,  1,  1
(PID.TID 0000.0001) ># val_regMask(1)= 1., 2., 3., 4., 5., 6., 7., 8., 9.,
(PID.TID 0000.0001) >#                10.,11.,12.,13.,14.,15.,16.,17.
(PID.TID 0000.0001) >##---
(PID.TID 0000.0001) ># stat_fields(1,1)= 'ETAN    ','ETANSQ  ','DETADT2 ',
(PID.TID 0000.0001) >#                   'UVEL    ','VVEL    ','WVEL    ',
(PID.TID 0000.0001) >#                   'THETA   ','SALT    ',
(PID.TID 0000.0001) >#    stat_fname(1)= 'dynStDiag',
(PID.TID 0000.0001) >#     stat_freq(1)= 3153600.,
(PID.TID 0000.0001) ># stat_region(1,1)=  1, 2, 3, 4, 5, 6, 7, 8, 9,
(PID.TID 0000.0001) >#                   10,11,12,13,14,15,16,17
(PID.TID 0000.0001) >##---
(PID.TID 0000.0001) ># stat_fields(1,2)= 'oceTAUX ','oceTAUY ',
(PID.TID 0000.0001) >#                   'surForcT','surForcS','TFLUX   ','SFLUX   ',
(PID.TID 0000.0001) >#                   'oceQnet ','oceSflux','oceFWflx',
(PID.TID 0000.0001) >#    stat_fname(2)= 'surfStDiag',
(PID.TID 0000.0001) >#     stat_freq(2)= 3153600.,
(PID.TID 0000.0001) ># stat_region(1,2)=  1, 2, 3, 4, 5, 6, 7, 8, 9,
(PID.TID 0000.0001) >#                   10,11,12,13,14,15,16,17
(PID.TID 0000.0001) > /
(PID.TID 0000.0001) 
(PID.TID 0000.0001) S/R DIAGNOSTICS_READPARMS, read namelist "diagnostics_list": start
(PID.TID 0000.0001) S/R DIAGNOSTICS_READPARMS, read namelist "diagnostics_list": OK
(PID.TID 0000.0001) S/R DIAGNOSTICS_READPARMS, read namelist "DIAG_STATIS_PARMS": start
(PID.TID 0000.0001) S/R DIAGNOSTICS_READPARMS, read namelist "DIAG_STATIS_PARMS": OK
(PID.TID 0000.0001)  DIAGNOSTICS_READPARMS: global parameter summary:
(PID.TID 0000.0001)  dumpAtLast = /* always write time-ave diags at the end */
(PID.TID 0000.0001)                   T
(PID.TID 0000.0001)     ;
(PID.TID 0000.0001)  diag_mnc =   /* write NetCDF output files */
(PID.TID 0000.0001)                   F
(PID.TID 0000.0001)     ;
(PID.TID 0000.0001)  useMissingValue = /* put MissingValue where mask = 0 */
(PID.TID 0000.0001)                   F
(PID.TID 0000.0001)     ;
(PID.TID 0000.0001)  diagCG_maxIters = /* max number of iters in diag_cg2d */
(PID.TID 0000.0001)                     300
(PID.TID 0000.0001)     ;
(PID.TID 0000.0001)  diagCG_resTarget = /* residual target for diag_cg2d */
(PID.TID 0000.0001)                 1.000000000000000E-07
(PID.TID 0000.0001)     ;
(PID.TID 0000.0001)  diagCG_pcOffDFac = /* preconditioner off-diagonal factor */
(PID.TID 0000.0001)                 9.611687812379854E-01
(PID.TID 0000.0001)     ;
(PID.TID 0000.0001) -----------------------------------------------------
(PID.TID 0000.0001)  DIAGNOSTICS_READPARMS: active diagnostics summary:
(PID.TID 0000.0001) -----------------------------------------------------
(PID.TID 0000.0001) Creating Output Stream: diags/ADVr_SLT_mon_mean/ADVr_SLT_mon_mean
(PID.TID 0000.0001) Output Frequency:    2635200.000000 ; Phase:           0.000000
(PID.TID 0000.0001)  Averaging Freq.:    2635200.000000 , Phase:           0.000000 , Cycle:   1
(PID.TID 0000.0001)  missing value: -9.990000000000E+02
(PID.TID 0000.0001)  Levels:    will be set later
(PID.TID 0000.0001)  Fields:    ADVr_SLT
(PID.TID 0000.0001) Creating Output Stream: diags/ADVr_TH_mon_mean/ADVr_TH_mon_mean
(PID.TID 0000.0001) Output Frequency:    2635200.000000 ; Phase:           0.000000
(PID.TID 0000.0001)  Averaging Freq.:    2635200.000000 , Phase:           0.000000 , Cycle:   1
(PID.TID 0000.0001)  missing value: -9.990000000000E+02
(PID.TID 0000.0001)  Levels:    will be set later
(PID.TID 0000.0001)  Fields:    ADVr_TH
(PID.TID 0000.0001) Creating Output Stream: diags/ADVxHEFF_mon_mean/ADVxHEFF_mon_mean
(PID.TID 0000.0001) Output Frequency:    2635200.000000 ; Phase:           0.000000
(PID.TID 0000.0001)  Averaging Freq.:    2635200.000000 , Phase:           0.000000 , Cycle:   1
(PID.TID 0000.0001)  missing value: -9.990000000000E+02
(PID.TID 0000.0001)  Levels:    will be set later
(PID.TID 0000.0001)  Fields:    ADVxHEFF
(PID.TID 0000.0001) Creating Output Stream: diags/ADVx_SLT_mon_mean/ADVx_SLT_mon_mean
(PID.TID 0000.0001) Output Frequency:    2635200.000000 ; Phase:           0.000000
(PID.TID 0000.0001)  Averaging Freq.:    2635200.000000 , Phase:           0.000000 , Cycle:   1
(PID.TID 0000.0001)  missing value: -9.990000000000E+02
(PID.TID 0000.0001)  Levels:    will be set later
(PID.TID 0000.0001)  Fields:    ADVx_SLT
(PID.TID 0000.0001) Creating Output Stream: diags/ADVxSNOW_mon_mean/ADVxSNOW_mon_mean
(PID.TID 0000.0001) Output Frequency:    2635200.000000 ; Phase:           0.000000
(PID.TID 0000.0001)  Averaging Freq.:    2635200.000000 , Phase:           0.000000 , Cycle:   1
(PID.TID 0000.0001)  missing value: -9.990000000000E+02
(PID.TID 0000.0001)  Levels:    will be set later
(PID.TID 0000.0001)  Fields:    ADVxSNOW
(PID.TID 0000.0001) Creating Output Stream: diags/ADVx_TH_mon_mean/ADVx_TH_mon_mean
(PID.TID 0000.0001) Output Frequency:    2635200.000000 ; Phase:           0.000000
(PID.TID 0000.0001)  Averaging Freq.:    2635200.000000 , Phase:           0.000000 , Cycle:   1
(PID.TID 0000.0001)  missing value: -9.990000000000E+02
(PID.TID 0000.0001)  Levels:    will be set later
(PID.TID 0000.0001)  Fields:    ADVx_TH
(PID.TID 0000.0001) Creating Output Stream: diags/ADVyHEFF_mon_mean/ADVyHEFF_mon_mean
(PID.TID 0000.0001) Output Frequency:    2635200.000000 ; Phase:           0.000000
(PID.TID 0000.0001)  Averaging Freq.:    2635200.000000 , Phase:           0.000000 , Cycle:   1
(PID.TID 0000.0001)  missing value: -9.990000000000E+02
(PID.TID 0000.0001)  Levels:    will be set later
(PID.TID 0000.0001)  Fields:    ADVyHEFF
(PID.TID 0000.0001) Creating Output Stream: diags/ADVy_SLT_mon_mean/ADVy_SLT_mon_mean
(PID.TID 0000.0001) Output Frequency:    2635200.000000 ; Phase:           0.000000
(PID.TID 0000.0001)  Averaging Freq.:    2635200.000000 , Phase:           0.000000 , Cycle:   1
(PID.TID 0000.0001)  missing value: -9.990000000000E+02
(PID.TID 0000.0001)  Levels:    will be set later
(PID.TID 0000.0001)  Fields:    ADVy_SLT
(PID.TID 0000.0001) Creating Output Stream: diags/ADVySNOW_mon_mean/ADVySNOW_mon_mean
(PID.TID 0000.0001) Output Frequency:    2635200.000000 ; Phase:           0.000000
(PID.TID 0000.0001)  Averaging Freq.:    2635200.000000 , Phase:           0.000000 , Cycle:   1
(PID.TID 0000.0001)  missing value: -9.990000000000E+02
(PID.TID 0000.0001)  Levels:    will be set later
(PID.TID 0000.0001)  Fields:    ADVySNOW
(PID.TID 0000.0001) Creating Output Stream: diags/ADVy_TH_mon_mean/ADVy_TH_mon_mean
(PID.TID 0000.0001) Output Frequency:    2635200.000000 ; Phase:           0.000000
(PID.TID 0000.0001)  Averaging Freq.:    2635200.000000 , Phase:           0.000000 , Cycle:   1
(PID.TID 0000.0001)  missing value: -9.990000000000E+02
(PID.TID 0000.0001)  Levels:    will be set later
(PID.TID 0000.0001)  Fields:    ADVy_TH
(PID.TID 0000.0001) Creating Output Stream: diags/DFrE_SLT_mon_mean/DFrE_SLT_mon_mean
(PID.TID 0000.0001) Output Frequency:    2635200.000000 ; Phase:           0.000000
(PID.TID 0000.0001)  Averaging Freq.:    2635200.000000 , Phase:           0.000000 , Cycle:   1
(PID.TID 0000.0001)  missing value: -9.990000000000E+02
(PID.TID 0000.0001)  Levels:    will be set later
(PID.TID 0000.0001)  Fields:    DFrE_SLT
(PID.TID 0000.0001) Creating Output Stream: diags/DFrE_TH_mon_mean/DFrE_TH_mon_mean
(PID.TID 0000.0001) Output Frequency:    2635200.000000 ; Phase:           0.000000
(PID.TID 0000.0001)  Averaging Freq.:    2635200.000000 , Phase:           0.000000 , Cycle:   1
(PID.TID 0000.0001)  missing value: -9.990000000000E+02
(PID.TID 0000.0001)  Levels:    will be set later
(PID.TID 0000.0001)  Fields:    DFrE_TH
(PID.TID 0000.0001) Creating Output Stream: diags/DFrI_SLT_mon_mean/DFrI_SLT_mon_mean
(PID.TID 0000.0001) Output Frequency:    2635200.000000 ; Phase:           0.000000
(PID.TID 0000.0001)  Averaging Freq.:    2635200.000000 , Phase:           0.000000 , Cycle:   1
(PID.TID 0000.0001)  missing value: -9.990000000000E+02
(PID.TID 0000.0001)  Levels:    will be set later
(PID.TID 0000.0001)  Fields:    DFrI_SLT
(PID.TID 0000.0001) Creating Output Stream: diags/DFrI_TH_mon_mean/DFrI_TH_mon_mean
(PID.TID 0000.0001) Output Frequency:    2635200.000000 ; Phase:           0.000000
(PID.TID 0000.0001)  Averaging Freq.:    2635200.000000 , Phase:           0.000000 , Cycle:   1
(PID.TID 0000.0001)  missing value: -9.990000000000E+02
(PID.TID 0000.0001)  Levels:    will be set later
(PID.TID 0000.0001)  Fields:    DFrI_TH
(PID.TID 0000.0001) Creating Output Stream: diags/DFxEHEFF_mon_mean/DFxEHEFF_mon_mean
(PID.TID 0000.0001) Output Frequency:    2635200.000000 ; Phase:           0.000000
(PID.TID 0000.0001)  Averaging Freq.:    2635200.000000 , Phase:           0.000000 , Cycle:   1
(PID.TID 0000.0001)  missing value: -9.990000000000E+02
(PID.TID 0000.0001)  Levels:    will be set later
(PID.TID 0000.0001)  Fields:    DFxEHEFF
(PID.TID 0000.0001) Creating Output Stream: diags/DFxE_SLT_mon_mean/DFxE_SLT_mon_mean
(PID.TID 0000.0001) Output Frequency:    2635200.000000 ; Phase:           0.000000
(PID.TID 0000.0001)  Averaging Freq.:    2635200.000000 , Phase:           0.000000 , Cycle:   1
(PID.TID 0000.0001)  missing value: -9.990000000000E+02
(PID.TID 0000.0001)  Levels:    will be set later
(PID.TID 0000.0001)  Fields:    DFxE_SLT
(PID.TID 0000.0001) Creating Output Stream: diags/DFxESNOW_mon_mean/DFxESNOW_mon_mean
(PID.TID 0000.0001) Output Frequency:    2635200.000000 ; Phase:           0.000000
(PID.TID 0000.0001)  Averaging Freq.:    2635200.000000 , Phase:           0.000000 , Cycle:   1
(PID.TID 0000.0001)  missing value: -9.990000000000E+02
(PID.TID 0000.0001)  Levels:    will be set later
(PID.TID 0000.0001)  Fields:    DFxESNOW
(PID.TID 0000.0001) Creating Output Stream: diags/DFxE_TH_mon_mean/DFxE_TH_mon_mean
(PID.TID 0000.0001) Output Frequency:    2635200.000000 ; Phase:           0.000000
(PID.TID 0000.0001)  Averaging Freq.:    2635200.000000 , Phase:           0.000000 , Cycle:   1
(PID.TID 0000.0001)  missing value: -9.990000000000E+02
(PID.TID 0000.0001)  Levels:    will be set later
(PID.TID 0000.0001)  Fields:    DFxE_TH
(PID.TID 0000.0001) Creating Output Stream: diags/DFyEHEFF_mon_mean/DFyEHEFF_mon_mean
(PID.TID 0000.0001) Output Frequency:    2635200.000000 ; Phase:           0.000000
(PID.TID 0000.0001)  Averaging Freq.:    2635200.000000 , Phase:           0.000000 , Cycle:   1
(PID.TID 0000.0001)  missing value: -9.990000000000E+02
(PID.TID 0000.0001)  Levels:    will be set later
(PID.TID 0000.0001)  Fields:    DFyEHEFF
(PID.TID 0000.0001) Creating Output Stream: diags/DFyE_SLT_mon_mean/DFyE_SLT_mon_mean
(PID.TID 0000.0001) Output Frequency:    2635200.000000 ; Phase:           0.000000
(PID.TID 0000.0001)  Averaging Freq.:    2635200.000000 , Phase:           0.000000 , Cycle:   1
(PID.TID 0000.0001)  missing value: -9.990000000000E+02
(PID.TID 0000.0001)  Levels:    will be set later
(PID.TID 0000.0001)  Fields:    DFyE_SLT
(PID.TID 0000.0001) Creating Output Stream: diags/DFyESNOW_mon_mean/DFyESNOW_mon_mean
(PID.TID 0000.0001) Output Frequency:    2635200.000000 ; Phase:           0.000000
(PID.TID 0000.0001)  Averaging Freq.:    2635200.000000 , Phase:           0.000000 , Cycle:   1
(PID.TID 0000.0001)  missing value: -9.990000000000E+02
(PID.TID 0000.0001)  Levels:    will be set later
(PID.TID 0000.0001)  Fields:    DFyESNOW
(PID.TID 0000.0001) Creating Output Stream: diags/DFyE_TH_mon_mean/DFyE_TH_mon_mean
(PID.TID 0000.0001) Output Frequency:    2635200.000000 ; Phase:           0.000000
(PID.TID 0000.0001)  Averaging Freq.:    2635200.000000 , Phase:           0.000000 , Cycle:   1
(PID.TID 0000.0001)  missing value: -9.990000000000E+02
(PID.TID 0000.0001)  Levels:    will be set later
(PID.TID 0000.0001)  Fields:    DFyE_TH
(PID.TID 0000.0001) Creating Output Stream: diags/DRHODR_mon_mean/DRHODR_mon_mean
(PID.TID 0000.0001) Output Frequency:    2635200.000000 ; Phase:           0.000000
(PID.TID 0000.0001)  Averaging Freq.:    2635200.000000 , Phase:           0.000000 , Cycle:   1
(PID.TID 0000.0001)  missing value: -9.990000000000E+02
(PID.TID 0000.0001)  Levels:    will be set later
(PID.TID 0000.0001)  Fields:    DRHODR
(PID.TID 0000.0001) Creating Output Stream: diags/ETAN_mon_mean/ETAN_mon_mean
(PID.TID 0000.0001) Output Frequency:    2635200.000000 ; Phase:           0.000000
(PID.TID 0000.0001)  Averaging Freq.:    2635200.000000 , Phase:           0.000000 , Cycle:   1
(PID.TID 0000.0001)  missing value: -9.990000000000E+02
(PID.TID 0000.0001)  Levels:    will be set later
(PID.TID 0000.0001)  Fields:    ETAN
(PID.TID 0000.0001) Creating Output Stream: diags/EXFaqh_mon_mean/EXFaqh_mon_mean
(PID.TID 0000.0001) Output Frequency:    2635200.000000 ; Phase:           0.000000
(PID.TID 0000.0001)  Averaging Freq.:    2635200.000000 , Phase:           0.000000 , Cycle:   1
(PID.TID 0000.0001)  missing value: -9.990000000000E+02
(PID.TID 0000.0001)  Levels:    will be set later
(PID.TID 0000.0001)  Fields:    EXFaqh
(PID.TID 0000.0001) Creating Output Stream: diags/EXFatemp_mon_mean/EXFatemp_mon_mean
(PID.TID 0000.0001) Output Frequency:    2635200.000000 ; Phase:           0.000000
(PID.TID 0000.0001)  Averaging Freq.:    2635200.000000 , Phase:           0.000000 , Cycle:   1
(PID.TID 0000.0001)  missing value: -9.990000000000E+02
(PID.TID 0000.0001)  Levels:    will be set later
(PID.TID 0000.0001)  Fields:    EXFatemp
(PID.TID 0000.0001) Creating Output Stream: diags/EXFempmr_mon_mean/EXFempmr_mon_mean
(PID.TID 0000.0001) Output Frequency:    2635200.000000 ; Phase:           0.000000
(PID.TID 0000.0001)  Averaging Freq.:    2635200.000000 , Phase:           0.000000 , Cycle:   1
(PID.TID 0000.0001)  missing value: -9.990000000000E+02
(PID.TID 0000.0001)  Levels:    will be set later
(PID.TID 0000.0001)  Fields:    EXFempmr
(PID.TID 0000.0001) Creating Output Stream: diags/EXFevap_mon_mean/EXFevap_mon_mean
(PID.TID 0000.0001) Output Frequency:    2635200.000000 ; Phase:           0.000000
(PID.TID 0000.0001)  Averaging Freq.:    2635200.000000 , Phase:           0.000000 , Cycle:   1
(PID.TID 0000.0001)  missing value: -9.990000000000E+02
(PID.TID 0000.0001)  Levels:    will be set later
(PID.TID 0000.0001)  Fields:    EXFevap
(PID.TID 0000.0001) Creating Output Stream: diags/EXFhl_mon_mean/EXFhl_mon_mean
(PID.TID 0000.0001) Output Frequency:    2635200.000000 ; Phase:           0.000000
(PID.TID 0000.0001)  Averaging Freq.:    2635200.000000 , Phase:           0.000000 , Cycle:   1
(PID.TID 0000.0001)  missing value: -9.990000000000E+02
(PID.TID 0000.0001)  Levels:    will be set later
(PID.TID 0000.0001)  Fields:    EXFhl
(PID.TID 0000.0001) Creating Output Stream: diags/EXFhs_mon_mean/EXFhs_mon_mean
(PID.TID 0000.0001) Output Frequency:    2635200.000000 ; Phase:           0.000000
(PID.TID 0000.0001)  Averaging Freq.:    2635200.000000 , Phase:           0.000000 , Cycle:   1
(PID.TID 0000.0001)  missing value: -9.990000000000E+02
(PID.TID 0000.0001)  Levels:    will be set later
(PID.TID 0000.0001)  Fields:    EXFhs
(PID.TID 0000.0001) Creating Output Stream: diags/EXFlwdn_mon_mean/EXFlwdn_mon_mean
(PID.TID 0000.0001) Output Frequency:    2635200.000000 ; Phase:           0.000000
(PID.TID 0000.0001)  Averaging Freq.:    2635200.000000 , Phase:           0.000000 , Cycle:   1
(PID.TID 0000.0001)  missing value: -9.990000000000E+02
(PID.TID 0000.0001)  Levels:    will be set later
(PID.TID 0000.0001)  Fields:    EXFlwdn
(PID.TID 0000.0001) Creating Output Stream: diags/EXFlwnet_mon_mean/EXFlwnet_mon_mean
(PID.TID 0000.0001) Output Frequency:    2635200.000000 ; Phase:           0.000000
(PID.TID 0000.0001)  Averaging Freq.:    2635200.000000 , Phase:           0.000000 , Cycle:   1
(PID.TID 0000.0001)  missing value: -9.990000000000E+02
(PID.TID 0000.0001)  Levels:    will be set later
(PID.TID 0000.0001)  Fields:    EXFlwnet
(PID.TID 0000.0001) Creating Output Stream: diags/EXFpreci_mon_mean/EXFpreci_mon_mean
(PID.TID 0000.0001) Output Frequency:    2635200.000000 ; Phase:           0.000000
(PID.TID 0000.0001)  Averaging Freq.:    2635200.000000 , Phase:           0.000000 , Cycle:   1
(PID.TID 0000.0001)  missing value: -9.990000000000E+02
(PID.TID 0000.0001)  Levels:    will be set later
(PID.TID 0000.0001)  Fields:    EXFpreci
(PID.TID 0000.0001) Creating Output Stream: diags/EXFqnet_mon_mean/EXFqnet_mon_mean
(PID.TID 0000.0001) Output Frequency:    2635200.000000 ; Phase:           0.000000
(PID.TID 0000.0001)  Averaging Freq.:    2635200.000000 , Phase:           0.000000 , Cycle:   1
(PID.TID 0000.0001)  missing value: -9.990000000000E+02
(PID.TID 0000.0001)  Levels:    will be set later
(PID.TID 0000.0001)  Fields:    EXFqnet
(PID.TID 0000.0001) Creating Output Stream: diags/EXFroff_mon_mean/EXFroff_mon_mean
(PID.TID 0000.0001) Output Frequency:    2635200.000000 ; Phase:           0.000000
(PID.TID 0000.0001)  Averaging Freq.:    2635200.000000 , Phase:           0.000000 , Cycle:   1
(PID.TID 0000.0001)  missing value: -9.990000000000E+02
(PID.TID 0000.0001)  Levels:    will be set later
(PID.TID 0000.0001)  Fields:    EXFroff
(PID.TID 0000.0001) Creating Output Stream: diags/EXFswdn_mon_mean/EXFswdn_mon_mean
(PID.TID 0000.0001) Output Frequency:    2635200.000000 ; Phase:           0.000000
(PID.TID 0000.0001)  Averaging Freq.:    2635200.000000 , Phase:           0.000000 , Cycle:   1
(PID.TID 0000.0001)  missing value: -9.990000000000E+02
(PID.TID 0000.0001)  Levels:    will be set later
(PID.TID 0000.0001)  Fields:    EXFswdn
(PID.TID 0000.0001) Creating Output Stream: diags/EXFswnet_mon_mean/EXFswnet_mon_mean
(PID.TID 0000.0001) Output Frequency:    2635200.000000 ; Phase:           0.000000
(PID.TID 0000.0001)  Averaging Freq.:    2635200.000000 , Phase:           0.000000 , Cycle:   1
(PID.TID 0000.0001)  missing value: -9.990000000000E+02
(PID.TID 0000.0001)  Levels:    will be set later
(PID.TID 0000.0001)  Fields:    EXFswnet
(PID.TID 0000.0001) Creating Output Stream: diags/EXFtaux_mon_mean/EXFtaux_mon_mean
(PID.TID 0000.0001) Output Frequency:    2635200.000000 ; Phase:           0.000000
(PID.TID 0000.0001)  Averaging Freq.:    2635200.000000 , Phase:           0.000000 , Cycle:   1
(PID.TID 0000.0001)  missing value: -9.990000000000E+02
(PID.TID 0000.0001)  Levels:    will be set later
(PID.TID 0000.0001)  Fields:    EXFtaux
(PID.TID 0000.0001) Creating Output Stream: diags/EXFtauy_mon_mean/EXFtauy_mon_mean
(PID.TID 0000.0001) Output Frequency:    2635200.000000 ; Phase:           0.000000
(PID.TID 0000.0001)  Averaging Freq.:    2635200.000000 , Phase:           0.000000 , Cycle:   1
(PID.TID 0000.0001)  missing value: -9.990000000000E+02
(PID.TID 0000.0001)  Levels:    will be set later
(PID.TID 0000.0001)  Fields:    EXFtauy
(PID.TID 0000.0001) Creating Output Stream: diags/EXFuwind_mon_mean/EXFuwind_mon_mean
(PID.TID 0000.0001) Output Frequency:    2635200.000000 ; Phase:           0.000000
(PID.TID 0000.0001)  Averaging Freq.:    2635200.000000 , Phase:           0.000000 , Cycle:   1
(PID.TID 0000.0001)  missing value: -9.990000000000E+02
(PID.TID 0000.0001)  Levels:    will be set later
(PID.TID 0000.0001)  Fields:    EXFuwind
(PID.TID 0000.0001) Creating Output Stream: diags/EXFvwind_mon_mean/EXFvwind_mon_mean
(PID.TID 0000.0001) Output Frequency:    2635200.000000 ; Phase:           0.000000
(PID.TID 0000.0001)  Averaging Freq.:    2635200.000000 , Phase:           0.000000 , Cycle:   1
(PID.TID 0000.0001)  missing value: -9.990000000000E+02
(PID.TID 0000.0001)  Levels:    will be set later
(PID.TID 0000.0001)  Fields:    EXFvwind
(PID.TID 0000.0001) Creating Output Stream: diags/EXFwspee_mon_mean/EXFwspee_mon_mean
(PID.TID 0000.0001) Output Frequency:    2635200.000000 ; Phase:           0.000000
(PID.TID 0000.0001)  Averaging Freq.:    2635200.000000 , Phase:           0.000000 , Cycle:   1
(PID.TID 0000.0001)  missing value: -9.990000000000E+02
(PID.TID 0000.0001)  Levels:    will be set later
(PID.TID 0000.0001)  Fields:    EXFwspee
(PID.TID 0000.0001) Creating Output Stream: diags/GM_PsiX_mon_mean/GM_PsiX_mon_mean
(PID.TID 0000.0001) Output Frequency:    2635200.000000 ; Phase:           0.000000
(PID.TID 0000.0001)  Averaging Freq.:    2635200.000000 , Phase:           0.000000 , Cycle:   1
(PID.TID 0000.0001)  missing value: -9.990000000000E+02
(PID.TID 0000.0001)  Levels:    will be set later
(PID.TID 0000.0001)  Fields:    GM_PsiX
(PID.TID 0000.0001) Creating Output Stream: diags/GM_PsiY_mon_mean/GM_PsiY_mon_mean
(PID.TID 0000.0001) Output Frequency:    2635200.000000 ; Phase:           0.000000
(PID.TID 0000.0001)  Averaging Freq.:    2635200.000000 , Phase:           0.000000 , Cycle:   1
(PID.TID 0000.0001)  missing value: -9.990000000000E+02
(PID.TID 0000.0001)  Levels:    will be set later
(PID.TID 0000.0001)  Fields:    GM_PsiY
(PID.TID 0000.0001) Creating Output Stream: diags/MXLDEPTH_mon_mean/MXLDEPTH_mon_mean
(PID.TID 0000.0001) Output Frequency:    2635200.000000 ; Phase:           0.000000
(PID.TID 0000.0001)  Averaging Freq.:    2635200.000000 , Phase:           0.000000 , Cycle:   1
(PID.TID 0000.0001)  missing value: -9.990000000000E+02
(PID.TID 0000.0001)  Levels:    will be set later
(PID.TID 0000.0001)  Fields:    MXLDEPTH
(PID.TID 0000.0001) Creating Output Stream: diags/oceFWflx_mon_mean/oceFWflx_mon_mean
(PID.TID 0000.0001) Output Frequency:    2635200.000000 ; Phase:           0.000000
(PID.TID 0000.0001)  Averaging Freq.:    2635200.000000 , Phase:           0.000000 , Cycle:   1
(PID.TID 0000.0001)  missing value: -9.990000000000E+02
(PID.TID 0000.0001)  Levels:    will be set later
(PID.TID 0000.0001)  Fields:    oceFWflx
(PID.TID 0000.0001) Creating Output Stream: diags/oceQnet_mon_mean/oceQnet_mon_mean
(PID.TID 0000.0001) Output Frequency:    2635200.000000 ; Phase:           0.000000
(PID.TID 0000.0001)  Averaging Freq.:    2635200.000000 , Phase:           0.000000 , Cycle:   1
(PID.TID 0000.0001)  missing value: -9.990000000000E+02
(PID.TID 0000.0001)  Levels:    will be set later
(PID.TID 0000.0001)  Fields:    oceQnet
(PID.TID 0000.0001) Creating Output Stream: diags/oceQsw_mon_mean/oceQsw_mon_mean
(PID.TID 0000.0001) Output Frequency:    2635200.000000 ; Phase:           0.000000
(PID.TID 0000.0001)  Averaging Freq.:    2635200.000000 , Phase:           0.000000 , Cycle:   1
(PID.TID 0000.0001)  missing value: -9.990000000000E+02
(PID.TID 0000.0001)  Levels:    will be set later
(PID.TID 0000.0001)  Fields:    oceQsw
(PID.TID 0000.0001) Creating Output Stream: diags/oceSPDep_mon_mean/oceSPDep_mon_mean
(PID.TID 0000.0001) Output Frequency:    2635200.000000 ; Phase:           0.000000
(PID.TID 0000.0001)  Averaging Freq.:    2635200.000000 , Phase:           0.000000 , Cycle:   1
(PID.TID 0000.0001)  missing value: -9.990000000000E+02
(PID.TID 0000.0001)  Levels:    will be set later
(PID.TID 0000.0001)  Fields:    oceSPDep
(PID.TID 0000.0001) Creating Output Stream: diags/oceSPflx_mon_mean/oceSPflx_mon_mean
(PID.TID 0000.0001) Output Frequency:    2635200.000000 ; Phase:           0.000000
(PID.TID 0000.0001)  Averaging Freq.:    2635200.000000 , Phase:           0.000000 , Cycle:   1
(PID.TID 0000.0001)  missing value: -9.990000000000E+02
(PID.TID 0000.0001)  Levels:    will be set later
(PID.TID 0000.0001)  Fields:    oceSPflx
(PID.TID 0000.0001) Creating Output Stream: diags/oceSPtnd_mon_mean/oceSPtnd_mon_mean
(PID.TID 0000.0001) Output Frequency:    2635200.000000 ; Phase:           0.000000
(PID.TID 0000.0001)  Averaging Freq.:    2635200.000000 , Phase:           0.000000 , Cycle:   1
(PID.TID 0000.0001)  missing value: -9.990000000000E+02
(PID.TID 0000.0001)  Levels:    will be set later
(PID.TID 0000.0001)  Fields:    oceSPtnd
(PID.TID 0000.0001) Creating Output Stream: diags/oceTAUX_mon_mean/oceTAUX_mon_mean
(PID.TID 0000.0001) Output Frequency:    2635200.000000 ; Phase:           0.000000
(PID.TID 0000.0001)  Averaging Freq.:    2635200.000000 , Phase:           0.000000 , Cycle:   1
(PID.TID 0000.0001)  missing value: -9.990000000000E+02
(PID.TID 0000.0001)  Levels:    will be set later
(PID.TID 0000.0001)  Fields:    oceTAUX
(PID.TID 0000.0001) Creating Output Stream: diags/oceTAUY_mon_mean/oceTAUY_mon_mean
(PID.TID 0000.0001) Output Frequency:    2635200.000000 ; Phase:           0.000000
(PID.TID 0000.0001)  Averaging Freq.:    2635200.000000 , Phase:           0.000000 , Cycle:   1
(PID.TID 0000.0001)  missing value: -9.990000000000E+02
(PID.TID 0000.0001)  Levels:    will be set later
(PID.TID 0000.0001)  Fields:    oceTAUY
(PID.TID 0000.0001) Creating Output Stream: diags/PHIBOT_mon_mean/PHIBOT_mon_mean
(PID.TID 0000.0001) Output Frequency:    2635200.000000 ; Phase:           0.000000
(PID.TID 0000.0001)  Averaging Freq.:    2635200.000000 , Phase:           0.000000 , Cycle:   1
(PID.TID 0000.0001)  missing value: -9.990000000000E+02
(PID.TID 0000.0001)  Levels:    will be set later
(PID.TID 0000.0001)  Fields:    PHIBOT
(PID.TID 0000.0001) Creating Output Stream: diags/PHIHYD_mon_mean/PHIHYD_mon_mean
(PID.TID 0000.0001) Output Frequency:    2635200.000000 ; Phase:           0.000000
(PID.TID 0000.0001)  Averaging Freq.:    2635200.000000 , Phase:           0.000000 , Cycle:   1
(PID.TID 0000.0001)  missing value: -9.990000000000E+02
(PID.TID 0000.0001)  Levels:    will be set later
(PID.TID 0000.0001)  Fields:    PHIHYD
(PID.TID 0000.0001) Creating Output Stream: diags/PHIHYDcR_mon_mean/PHIHYDcR_mon_mean
(PID.TID 0000.0001) Output Frequency:    2635200.000000 ; Phase:           0.000000
(PID.TID 0000.0001)  Averaging Freq.:    2635200.000000 , Phase:           0.000000 , Cycle:   1
(PID.TID 0000.0001)  missing value: -9.990000000000E+02
(PID.TID 0000.0001)  Levels:    will be set later
(PID.TID 0000.0001)  Fields:    PHIHYDcR
(PID.TID 0000.0001) Creating Output Stream: diags/RHOAnoma_mon_mean/RHOAnoma_mon_mean
(PID.TID 0000.0001) Output Frequency:    2635200.000000 ; Phase:           0.000000
(PID.TID 0000.0001)  Averaging Freq.:    2635200.000000 , Phase:           0.000000 , Cycle:   1
(PID.TID 0000.0001)  missing value: -9.990000000000E+02
(PID.TID 0000.0001)  Levels:    will be set later
(PID.TID 0000.0001)  Fields:    RHOAnoma
(PID.TID 0000.0001) Creating Output Stream: diags/SALT_mon_mean/SALT_mon_mean
(PID.TID 0000.0001) Output Frequency:    2635200.000000 ; Phase:           0.000000
(PID.TID 0000.0001)  Averaging Freq.:    2635200.000000 , Phase:           0.000000 , Cycle:   1
(PID.TID 0000.0001)  missing value: -9.990000000000E+02
(PID.TID 0000.0001)  Levels:    will be set later
(PID.TID 0000.0001)  Fields:    SALT
(PID.TID 0000.0001) Creating Output Stream: diags/SFLUX_mon_mean/SFLUX_mon_mean
(PID.TID 0000.0001) Output Frequency:    2635200.000000 ; Phase:           0.000000
(PID.TID 0000.0001)  Averaging Freq.:    2635200.000000 , Phase:           0.000000 , Cycle:   1
(PID.TID 0000.0001)  missing value: -9.990000000000E+02
(PID.TID 0000.0001)  Levels:    will be set later
(PID.TID 0000.0001)  Fields:    SFLUX
(PID.TID 0000.0001) Creating Output Stream: diags/SIarea_mon_mean/SIarea_mon_mean
(PID.TID 0000.0001) Output Frequency:    2635200.000000 ; Phase:           0.000000
(PID.TID 0000.0001)  Averaging Freq.:    2635200.000000 , Phase:           0.000000 , Cycle:   1
(PID.TID 0000.0001)  missing value: -9.990000000000E+02
(PID.TID 0000.0001)  Levels:    will be set later
(PID.TID 0000.0001)  Fields:    SIarea
(PID.TID 0000.0001) Creating Output Stream: diags/SIatmFW_mon_mean/SIatmFW_mon_mean
(PID.TID 0000.0001) Output Frequency:    2635200.000000 ; Phase:           0.000000
(PID.TID 0000.0001)  Averaging Freq.:    2635200.000000 , Phase:           0.000000 , Cycle:   1
(PID.TID 0000.0001)  missing value: -9.990000000000E+02
(PID.TID 0000.0001)  Levels:    will be set later
(PID.TID 0000.0001)  Fields:    SIatmFW
(PID.TID 0000.0001) Creating Output Stream: diags/SIatmQnt_mon_mean/SIatmQnt_mon_mean
(PID.TID 0000.0001) Output Frequency:    2635200.000000 ; Phase:           0.000000
(PID.TID 0000.0001)  Averaging Freq.:    2635200.000000 , Phase:           0.000000 , Cycle:   1
(PID.TID 0000.0001)  missing value: -9.990000000000E+02
(PID.TID 0000.0001)  Levels:    will be set later
(PID.TID 0000.0001)  Fields:    SIatmQnt
(PID.TID 0000.0001) Creating Output Stream: diags/sIceLoad_mon_mean/sIceLoad_mon_mean
(PID.TID 0000.0001) Output Frequency:    2635200.000000 ; Phase:           0.000000
(PID.TID 0000.0001)  Averaging Freq.:    2635200.000000 , Phase:           0.000000 , Cycle:   1
(PID.TID 0000.0001)  missing value: -9.990000000000E+02
(PID.TID 0000.0001)  Levels:    will be set later
(PID.TID 0000.0001)  Fields:    sIceLoad
(PID.TID 0000.0001) Creating Output Stream: diags/SIheff_mon_mean/SIheff_mon_mean
(PID.TID 0000.0001) Output Frequency:    2635200.000000 ; Phase:           0.000000
(PID.TID 0000.0001)  Averaging Freq.:    2635200.000000 , Phase:           0.000000 , Cycle:   1
(PID.TID 0000.0001)  missing value: -9.990000000000E+02
(PID.TID 0000.0001)  Levels:    will be set later
(PID.TID 0000.0001)  Fields:    SIheff
(PID.TID 0000.0001) Creating Output Stream: diags/SIhsnow_mon_mean/SIhsnow_mon_mean
(PID.TID 0000.0001) Output Frequency:    2635200.000000 ; Phase:           0.000000
(PID.TID 0000.0001)  Averaging Freq.:    2635200.000000 , Phase:           0.000000 , Cycle:   1
(PID.TID 0000.0001)  missing value: -9.990000000000E+02
(PID.TID 0000.0001)  Levels:    will be set later
(PID.TID 0000.0001)  Fields:    SIhsnow
(PID.TID 0000.0001) Creating Output Stream: diags/SIsnPrcp_mon_mean/SIsnPrcp_mon_mean
(PID.TID 0000.0001) Output Frequency:    2635200.000000 ; Phase:           0.000000
(PID.TID 0000.0001)  Averaging Freq.:    2635200.000000 , Phase:           0.000000 , Cycle:   1
(PID.TID 0000.0001)  missing value: -9.990000000000E+02
(PID.TID 0000.0001)  Levels:    will be set later
(PID.TID 0000.0001)  Fields:    SIsnPrcp
(PID.TID 0000.0001) Creating Output Stream: diags/SIuice_mon_mean/SIuice_mon_mean
(PID.TID 0000.0001) Output Frequency:    2635200.000000 ; Phase:           0.000000
(PID.TID 0000.0001)  Averaging Freq.:    2635200.000000 , Phase:           0.000000 , Cycle:   1
(PID.TID 0000.0001)  missing value: -9.990000000000E+02
(PID.TID 0000.0001)  Levels:    will be set later
(PID.TID 0000.0001)  Fields:    SIuice
(PID.TID 0000.0001) Creating Output Stream: diags/SIvice_mon_mean/SIvice_mon_mean
(PID.TID 0000.0001) Output Frequency:    2635200.000000 ; Phase:           0.000000
(PID.TID 0000.0001)  Averaging Freq.:    2635200.000000 , Phase:           0.000000 , Cycle:   1
(PID.TID 0000.0001)  missing value: -9.990000000000E+02
(PID.TID 0000.0001)  Levels:    will be set later
(PID.TID 0000.0001)  Fields:    SIvice
(PID.TID 0000.0001) Creating Output Stream: diags/TFLUX_mon_mean/TFLUX_mon_mean
(PID.TID 0000.0001) Output Frequency:    2635200.000000 ; Phase:           0.000000
(PID.TID 0000.0001)  Averaging Freq.:    2635200.000000 , Phase:           0.000000 , Cycle:   1
(PID.TID 0000.0001)  missing value: -9.990000000000E+02
(PID.TID 0000.0001)  Levels:    will be set later
(PID.TID 0000.0001)  Fields:    TFLUX
(PID.TID 0000.0001) Creating Output Stream: diags/THETA_mon_mean/THETA_mon_mean
(PID.TID 0000.0001) Output Frequency:    2635200.000000 ; Phase:           0.000000
(PID.TID 0000.0001)  Averaging Freq.:    2635200.000000 , Phase:           0.000000 , Cycle:   1
(PID.TID 0000.0001)  missing value: -9.990000000000E+02
(PID.TID 0000.0001)  Levels:    will be set later
(PID.TID 0000.0001)  Fields:    THETA
(PID.TID 0000.0001) Creating Output Stream: diags/Um_dPHdx_mon_mean/Um_dPHdx_mon_mean
(PID.TID 0000.0001) Output Frequency:    2635200.000000 ; Phase:           0.000000
(PID.TID 0000.0001)  Averaging Freq.:    2635200.000000 , Phase:           0.000000 , Cycle:   1
(PID.TID 0000.0001)  missing value: -9.990000000000E+02
(PID.TID 0000.0001)  Levels:    will be set later
(PID.TID 0000.0001)  Fields:    Um_dPHdx
(PID.TID 0000.0001) Creating Output Stream: diags/UVEL_mon_mean/UVEL_mon_mean
(PID.TID 0000.0001) Output Frequency:    2635200.000000 ; Phase:           0.000000
(PID.TID 0000.0001)  Averaging Freq.:    2635200.000000 , Phase:           0.000000 , Cycle:   1
(PID.TID 0000.0001)  missing value: -9.990000000000E+02
(PID.TID 0000.0001)  Levels:    will be set later
(PID.TID 0000.0001)  Fields:    UVEL
(PID.TID 0000.0001) Creating Output Stream: diags/UVELMASS_mon_mean/UVELMASS_mon_mean
(PID.TID 0000.0001) Output Frequency:    2635200.000000 ; Phase:           0.000000
(PID.TID 0000.0001)  Averaging Freq.:    2635200.000000 , Phase:           0.000000 , Cycle:   1
(PID.TID 0000.0001)  missing value: -9.990000000000E+02
(PID.TID 0000.0001)  Levels:    will be set later
(PID.TID 0000.0001)  Fields:    UVELMASS
(PID.TID 0000.0001) Creating Output Stream: diags/Vm_dPHdy_mon_mean/Vm_dPHdy_mon_mean
(PID.TID 0000.0001) Output Frequency:    2635200.000000 ; Phase:           0.000000
(PID.TID 0000.0001)  Averaging Freq.:    2635200.000000 , Phase:           0.000000 , Cycle:   1
(PID.TID 0000.0001)  missing value: -9.990000000000E+02
(PID.TID 0000.0001)  Levels:    will be set later
(PID.TID 0000.0001)  Fields:    Vm_dPHdy
(PID.TID 0000.0001) Creating Output Stream: diags/VVEL_mon_mean/VVEL_mon_mean
(PID.TID 0000.0001) Output Frequency:    2635200.000000 ; Phase:           0.000000
(PID.TID 0000.0001)  Averaging Freq.:    2635200.000000 , Phase:           0.000000 , Cycle:   1
(PID.TID 0000.0001)  missing value: -9.990000000000E+02
(PID.TID 0000.0001)  Levels:    will be set later
(PID.TID 0000.0001)  Fields:    VVEL
(PID.TID 0000.0001) Creating Output Stream: diags/VVELMASS_mon_mean/VVELMASS_mon_mean
(PID.TID 0000.0001) Output Frequency:    2635200.000000 ; Phase:           0.000000
(PID.TID 0000.0001)  Averaging Freq.:    2635200.000000 , Phase:           0.000000 , Cycle:   1
(PID.TID 0000.0001)  missing value: -9.990000000000E+02
(PID.TID 0000.0001)  Levels:    will be set later
(PID.TID 0000.0001)  Fields:    VVELMASS
(PID.TID 0000.0001) Creating Output Stream: diags/WVELMASS_mon_mean/WVELMASS_mon_mean
(PID.TID 0000.0001) Output Frequency:    2635200.000000 ; Phase:           0.000000
(PID.TID 0000.0001)  Averaging Freq.:    2635200.000000 , Phase:           0.000000 , Cycle:   1
(PID.TID 0000.0001)  missing value: -9.990000000000E+02
(PID.TID 0000.0001)  Levels:    will be set later
(PID.TID 0000.0001)  Fields:    WVELMASS
(PID.TID 0000.0001) Creating Output Stream: diags/ETAN_mon_inst/ETAN_mon_inst
(PID.TID 0000.0001) Output Frequency:   -2635200.000000 ; Phase:           0.000000
(PID.TID 0000.0001)  Averaging Freq.:          0.000000 , Phase:           0.000000 , Cycle:   1
(PID.TID 0000.0001)  missing value: -9.990000000000E+02
(PID.TID 0000.0001)  Levels:    will be set later
(PID.TID 0000.0001)  Fields:    ETAN
(PID.TID 0000.0001) Creating Output Stream: diags/SALT_mon_inst/SALT_mon_inst
(PID.TID 0000.0001) Output Frequency:   -2635200.000000 ; Phase:           0.000000
(PID.TID 0000.0001)  Averaging Freq.:          0.000000 , Phase:           0.000000 , Cycle:   1
(PID.TID 0000.0001)  missing value: -9.990000000000E+02
(PID.TID 0000.0001)  Levels:    will be set later
(PID.TID 0000.0001)  Fields:    SALT
(PID.TID 0000.0001) Creating Output Stream: diags/THETA_mon_inst/THETA_mon_inst
(PID.TID 0000.0001) Output Frequency:   -2635200.000000 ; Phase:           0.000000
(PID.TID 0000.0001)  Averaging Freq.:          0.000000 , Phase:           0.000000 , Cycle:   1
(PID.TID 0000.0001)  missing value: -9.990000000000E+02
(PID.TID 0000.0001)  Levels:    will be set later
(PID.TID 0000.0001)  Fields:    THETA
(PID.TID 0000.0001) Creating Output Stream: diags/SIheff_mon_inst/SIheff_mon_inst
(PID.TID 0000.0001) Output Frequency:   -2635200.000000 ; Phase:           0.000000
(PID.TID 0000.0001)  Averaging Freq.:          0.000000 , Phase:           0.000000 , Cycle:   1
(PID.TID 0000.0001)  missing value: -9.990000000000E+02
(PID.TID 0000.0001)  Levels:    will be set later
(PID.TID 0000.0001)  Fields:    SIheff
(PID.TID 0000.0001) Creating Output Stream: diags/SIhsnow_mon_inst/SIhsnow_mon_inst
(PID.TID 0000.0001) Output Frequency:   -2635200.000000 ; Phase:           0.000000
(PID.TID 0000.0001)  Averaging Freq.:          0.000000 , Phase:           0.000000 , Cycle:   1
(PID.TID 0000.0001)  missing value: -9.990000000000E+02
(PID.TID 0000.0001)  Levels:    will be set later
(PID.TID 0000.0001)  Fields:    SIhsnow
(PID.TID 0000.0001) Creating Output Stream: diags/SSH_mon_mean/SSH_mon_mean
(PID.TID 0000.0001) Output Frequency:    2635200.000000 ; Phase:           0.000000
(PID.TID 0000.0001)  Averaging Freq.:    2635200.000000 , Phase:           0.000000 , Cycle:   1
(PID.TID 0000.0001)  missing value: -9.990000000000E+02
(PID.TID 0000.0001)  Levels:    will be set later
(PID.TID 0000.0001)  Fields:    SSH
(PID.TID 0000.0001) Creating Output Stream: diags/SSHIBC_mon_mean/SSHIBC_mon_mean
(PID.TID 0000.0001) Output Frequency:    2635200.000000 ; Phase:           0.000000
(PID.TID 0000.0001)  Averaging Freq.:    2635200.000000 , Phase:           0.000000 , Cycle:   1
(PID.TID 0000.0001)  missing value: -9.990000000000E+02
(PID.TID 0000.0001)  Levels:    will be set later
(PID.TID 0000.0001)  Fields:    SSHIBC
(PID.TID 0000.0001) Creating Output Stream: diags/SSHNOIBC_mon_mean/SSHNOIBC_mon_mean
(PID.TID 0000.0001) Output Frequency:    2635200.000000 ; Phase:           0.000000
(PID.TID 0000.0001)  Averaging Freq.:    2635200.000000 , Phase:           0.000000 , Cycle:   1
(PID.TID 0000.0001)  missing value: -9.990000000000E+02
(PID.TID 0000.0001)  Levels:    will be set later
(PID.TID 0000.0001)  Fields:    SSHNOIBC
(PID.TID 0000.0001) Creating Output Stream: diags/OBP_mon_mean/OBP_mon_mean
(PID.TID 0000.0001) Output Frequency:    2635200.000000 ; Phase:           0.000000
(PID.TID 0000.0001)  Averaging Freq.:    2635200.000000 , Phase:           0.000000 , Cycle:   1
(PID.TID 0000.0001)  missing value: -9.990000000000E+02
(PID.TID 0000.0001)  Levels:    will be set later
(PID.TID 0000.0001)  Fields:    OBP
(PID.TID 0000.0001) Creating Output Stream: diags/OBPGMAP_mon_mean/OBPGMAP_mon_mean
(PID.TID 0000.0001) Output Frequency:    2635200.000000 ; Phase:           0.000000
(PID.TID 0000.0001)  Averaging Freq.:    2635200.000000 , Phase:           0.000000 , Cycle:   1
(PID.TID 0000.0001)  missing value: -9.990000000000E+02
(PID.TID 0000.0001)  Levels:    will be set later
(PID.TID 0000.0001)  Fields:    OBPGMAP
(PID.TID 0000.0001) Creating Output Stream: diags/EXFpress_mon_mean/EXFpress_mon_mean
(PID.TID 0000.0001) Output Frequency:    2635200.000000 ; Phase:           0.000000
(PID.TID 0000.0001)  Averaging Freq.:    2635200.000000 , Phase:           0.000000 , Cycle:   1
(PID.TID 0000.0001)  missing value: -9.990000000000E+02
(PID.TID 0000.0001)  Levels:    will be set later
(PID.TID 0000.0001)  Fields:    EXFpress
(PID.TID 0000.0001) -----------------------------------------------------
(PID.TID 0000.0001)  DIAGNOSTICS_READPARMS: statistics diags. summary:
(PID.TID 0000.0001) -----------------------------------------------------
(PID.TID 0000.0001) 
(PID.TID 0000.0001) SET_PARMS: done
==> SYSTEM CALL (from AUTODIFF_INI_MODEL_IO): > mkdir -p tapes <
==> SYSTEM CALL (from PROFILES_INI_IO): > mkdir -p profiles <
(PID.TID 0000.0001) Enter INI_VERTICAL_GRID: setInterFDr=    T ; setCenterDr=    F
(PID.TID 0000.0001) tile:  13 ; Read from file tile001.mitgrid
(PID.TID 0000.0001)   => xC yC dxF dyF rA xG yG dxV dyU rAz dxC dyC rAw rAs dxG dyG
(PID.TID 0000.0001) %MON XC_max                       =   1.7997758946678E+02
(PID.TID 0000.0001) %MON XC_min                       =  -1.7998895680928E+02
(PID.TID 0000.0001) %MON XC_mean                      =  -1.0354689745251E+01
(PID.TID 0000.0001) %MON XC_sd                        =   1.0601378873778E+02
(PID.TID 0000.0001) %MON XG_max                       =   1.8000000000000E+02
(PID.TID 0000.0001) %MON XG_min                       =  -1.7999919444240E+02
(PID.TID 0000.0001) %MON XG_mean                      =  -9.7316629877777E+00
(PID.TID 0000.0001) %MON XG_sd                        =   1.0605795026741E+02
(PID.TID 0000.0001) %MON DXC_max                      =   1.1117680031365E+05
(PID.TID 0000.0001) %MON DXC_min                      =   1.3362789164732E+04
(PID.TID 0000.0001) %MON DXC_mean                     =   7.1282067642819E+04
(PID.TID 0000.0001) %MON DXC_sd                       =   2.6365676113021E+04
(PID.TID 0000.0001) %MON DXF_max                      =   1.1117680031365E+05
(PID.TID 0000.0001) %MON DXF_min                      =   1.3491575949394E+04
(PID.TID 0000.0001) %MON DXF_mean                     =   7.1262567365097E+04
(PID.TID 0000.0001) %MON DXF_sd                       =   2.6385918670202E+04
(PID.TID 0000.0001) %MON DXG_max                      =   1.1117747335204E+05
(PID.TID 0000.0001) %MON DXG_min                      =   1.0930409249570E+04
(PID.TID 0000.0001) %MON DXG_mean                     =   7.1224912463018E+04
(PID.TID 0000.0001) %MON DXG_sd                       =   2.6396347680762E+04
(PID.TID 0000.0001) %MON DXV_max                      =   1.1117747335204E+05
(PID.TID 0000.0001) %MON DXV_min                      =   9.4742518926426E+03
(PID.TID 0000.0001) %MON DXV_mean                     =   7.1244400980648E+04
(PID.TID 0000.0001) %MON DXV_sd                       =   2.6376171348787E+04
(PID.TID 0000.0001) %MON YC_max                       =   8.9739397429324E+01
(PID.TID 0000.0001) %MON YC_min                       =  -8.8102666383598E+01
(PID.TID 0000.0001) %MON YC_mean                      =  -3.8493079484782E+00
(PID.TID 0000.0001) %MON YC_sd                        =   5.1076689278256E+01
(PID.TID 0000.0001) %MON YG_max                       =   9.0000000000000E+01
(PID.TID 0000.0001) %MON YG_min                       =  -8.8024090322283E+01
(PID.TID 0000.0001) %MON YG_mean                      =  -3.8179083153408E+00
(PID.TID 0000.0001) %MON YG_sd                        =   5.1084555464418E+01
(PID.TID 0000.0001) %MON DYC_max                      =   1.1117680031365E+05
(PID.TID 0000.0001) %MON DYC_min                      =   1.2851209862268E+04
(PID.TID 0000.0001) %MON DYC_mean                     =   7.0996219118354E+04
(PID.TID 0000.0001) %MON DYC_sd                       =   2.7172906336655E+04
(PID.TID 0000.0001) %MON DYF_max                      =   1.1117680031365E+05
(PID.TID 0000.0001) %MON DYF_min                      =   1.2946481280457E+04
(PID.TID 0000.0001) %MON DYF_mean                     =   7.1029727417398E+04
(PID.TID 0000.0001) %MON DYF_sd                       =   2.7169103980511E+04
(PID.TID 0000.0001) %MON DYG_max                      =   1.1117747335204E+05
(PID.TID 0000.0001) %MON DYG_min                      =   1.0930409249570E+04
(PID.TID 0000.0001) %MON DYG_mean                     =   7.1056024568496E+04
(PID.TID 0000.0001) %MON DYG_sd                       =   2.7138779068799E+04
(PID.TID 0000.0001) %MON DYU_max                      =   1.1117747335204E+05
(PID.TID 0000.0001) %MON DYU_min                      =   9.4742518926426E+03
(PID.TID 0000.0001) %MON DYU_mean                     =   7.1022557361675E+04
(PID.TID 0000.0001) %MON DYU_sd                       =   2.7142564797123E+04
(PID.TID 0000.0001) %MON RA_max                       =   1.1896090857160E+10
(PID.TID 0000.0001) %MON RA_min                       =   1.8802726709832E+08
(PID.TID 0000.0001) %MON RA_mean                      =   5.6509598865793E+09
(PID.TID 0000.0001) %MON RA_sd                        =   3.6237073945657E+09
(PID.TID 0000.0001) %MON RAW_max                      =   1.1896090856781E+10
(PID.TID 0000.0001) %MON RAW_min                      =   1.7369571508711E+08
(PID.TID 0000.0001) %MON RAW_mean                     =   5.6529106837210E+09
(PID.TID 0000.0001) %MON RAW_sd                       =   3.6222060900726E+09
(PID.TID 0000.0001) %MON RAS_max                      =   1.1896090856781E+10
(PID.TID 0000.0001) %MON RAS_min                      =   1.7369571508711E+08
(PID.TID 0000.0001) %MON RAS_mean                     =   5.6462585155598E+09
(PID.TID 0000.0001) %MON RAS_sd                       =   3.6239168120244E+09
(PID.TID 0000.0001) %MON RAZ_max                      =   1.1891903479271E+10
(PID.TID 0000.0001) %MON RAZ_min                      =   1.0413402423292E+08
(PID.TID 0000.0001) %MON RAZ_mean                     =   5.6482099179688E+09
(PID.TID 0000.0001) %MON RAZ_sd                       =   3.6224179770596E+09
(PID.TID 0000.0001) %MON AngleCS_max                  =   1.0000000000000E+00
(PID.TID 0000.0001) %MON AngleCS_min                  =  -9.9996641938864E-01
(PID.TID 0000.0001) %MON AngleCS_mean                 =   3.7891728692339E-01
(PID.TID 0000.0001) %MON AngleCS_sd                   =   5.4799109936656E-01
(PID.TID 0000.0001) %MON AngleSN_max                  =   9.9996641938864E-01
(PID.TID 0000.0001) %MON AngleSN_min                  =  -1.0000000000000E+00
(PID.TID 0000.0001) %MON AngleSN_mean                 =  -5.1564638641270E-01
(PID.TID 0000.0001) %MON AngleSN_sd                   =   5.3873578762245E-01
(PID.TID 0000.0001) 
(PID.TID 0000.0001) // =======================================================
(PID.TID 0000.0001) // Calendar configuration >>> START <<<
(PID.TID 0000.0001) // =======================================================
(PID.TID 0000.0001) 
(PID.TID 0000.0001) modelstart = /* Start time of the model integration [s] */
(PID.TID 0000.0001)                 3.600000000000000E+03
(PID.TID 0000.0001)     ;
(PID.TID 0000.0001) modelend  = /* End time of the model integration [s] */
(PID.TID 0000.0001)                 4.719960000000000E+07
(PID.TID 0000.0001)     ;
(PID.TID 0000.0001) modelStep = /* Time interval for a model forward step [s] */
(PID.TID 0000.0001)                 3.600000000000000E+03
(PID.TID 0000.0001)     ;
(PID.TID 0000.0001) usingGregorianCalendar= /* Calendar Type: Gregorian Calendar */
(PID.TID 0000.0001)                   T
(PID.TID 0000.0001)     ;
(PID.TID 0000.0001) usingJulianCalendar = /* Calendar Type: Julian Calendar */
(PID.TID 0000.0001)                   F
(PID.TID 0000.0001)     ;
(PID.TID 0000.0001) usingNoLeapYearCal  = /* Calendar Type: without Leap Year */
(PID.TID 0000.0001)                   F
(PID.TID 0000.0001)     ;
(PID.TID 0000.0001) usingModelCalendar  = /* Calendar Type: Model Calendar */
(PID.TID 0000.0001)                   F
(PID.TID 0000.0001)     ;
(PID.TID 0000.0001) modelStartDate YYYYMMDD = /* Model start date YYYY-MM-DD */
(PID.TID 0000.0001)                19920101
(PID.TID 0000.0001)     ;
(PID.TID 0000.0001)   modelStartDate HHMMSS = /* Model start date HH-MM-SS  */
(PID.TID 0000.0001)                  130000
(PID.TID 0000.0001)     ;
(PID.TID 0000.0001) modelEndDate   YYYYMMDD = /* Model end date YYYY-MM-DD */
(PID.TID 0000.0001)                19930630
(PID.TID 0000.0001)     ;
(PID.TID 0000.0001)   modelEndDate   HHMMSS = /* Model end date HH-MM-SS  */
(PID.TID 0000.0001)                  190000
(PID.TID 0000.0001)     ;
(PID.TID 0000.0001) intyears = /* Number of calendar years affected by the integration */
(PID.TID 0000.0001)                       2
(PID.TID 0000.0001)     ;
(PID.TID 0000.0001) intmonths= /* Number of calendar months affected by the integration */
(PID.TID 0000.0001)                      18
(PID.TID 0000.0001)     ;
(PID.TID 0000.0001) intdays = /* Number of calendar days affected by the integration */
(PID.TID 0000.0001)                     547
(PID.TID 0000.0001)     ;
(PID.TID 0000.0001) modelIter0 = /* Base timestep number  */
(PID.TID 0000.0001)                       1
(PID.TID 0000.0001)     ;
(PID.TID 0000.0001) modelIterEnd = /* Final timestep number  */
(PID.TID 0000.0001)                   13111
(PID.TID 0000.0001)     ;
(PID.TID 0000.0001) modelIntSteps= /* Number of model timesteps  */
(PID.TID 0000.0001)                   13110
(PID.TID 0000.0001)     ;
(PID.TID 0000.0001) 
(PID.TID 0000.0001) // =======================================================
(PID.TID 0000.0001) // Calendar configuration  >>> END <<<
(PID.TID 0000.0001) // =======================================================
(PID.TID 0000.0001) 
(PID.TID 0000.0001) GAD_INIT_FIXED: GAD_OlMinSize=  2  0  2
(PID.TID 0000.0001) 
(PID.TID 0000.0001) // ===================================
(PID.TID 0000.0001) // GAD parameters :
(PID.TID 0000.0001) // ===================================
(PID.TID 0000.0001) tempAdvScheme =   /* Temp. Horiz.Advection scheme selector */
(PID.TID 0000.0001)                      30
(PID.TID 0000.0001)     ;
(PID.TID 0000.0001) tempVertAdvScheme =   /* Temp. Vert. Advection scheme selector */
(PID.TID 0000.0001)                       3
(PID.TID 0000.0001)     ;
(PID.TID 0000.0001) tempMultiDimAdvec =   /* use Muti-Dim Advec method for Temp */
(PID.TID 0000.0001)                   T
(PID.TID 0000.0001)     ;
(PID.TID 0000.0001) tempSOM_Advection = /* use 2nd Order Moment Advection for Temp */
(PID.TID 0000.0001)                   F
(PID.TID 0000.0001)     ;
(PID.TID 0000.0001) AdamsBashforthGt = /* apply Adams-Bashforth extrapolation on Gt */
(PID.TID 0000.0001)                   F
(PID.TID 0000.0001)     ;
(PID.TID 0000.0001) AdamsBashforth_T = /* apply Adams-Bashforth extrapolation on Temp */
(PID.TID 0000.0001)                   F
(PID.TID 0000.0001)     ;
(PID.TID 0000.0001) saltAdvScheme =   /* Salt. Horiz.advection scheme selector */
(PID.TID 0000.0001)                      30
(PID.TID 0000.0001)     ;
(PID.TID 0000.0001) saltVertAdvScheme =   /* Salt. Vert. Advection scheme selector */
(PID.TID 0000.0001)                       3
(PID.TID 0000.0001)     ;
(PID.TID 0000.0001) saltMultiDimAdvec =   /* use Muti-Dim Advec method for Salt */
(PID.TID 0000.0001)                   T
(PID.TID 0000.0001)     ;
(PID.TID 0000.0001) saltSOM_Advection = /* use 2nd Order Moment Advection for Salt */
(PID.TID 0000.0001)                   F
(PID.TID 0000.0001)     ;
(PID.TID 0000.0001) AdamsBashforthGs = /* apply Adams-Bashforth extrapolation on Gs */
(PID.TID 0000.0001)                   F
(PID.TID 0000.0001)     ;
(PID.TID 0000.0001) AdamsBashforth_S = /* apply Adams-Bashforth extrapolation on Salt */
(PID.TID 0000.0001)                   F
(PID.TID 0000.0001)     ;
(PID.TID 0000.0001) // ===================================
(PID.TID 0000.0001) 
(PID.TID 0000.0001) // =======================================================
(PID.TID 0000.0001) // External forcing (EXF) configuration >>> START <<<
(PID.TID 0000.0001) // =======================================================
(PID.TID 0000.0001) 
(PID.TID 0000.0001)  EXF general parameters:
(PID.TID 0000.0001) 
(PID.TID 0000.0001) exf_iprec = /* exf file precision */
(PID.TID 0000.0001)                      32
(PID.TID 0000.0001)     ;
(PID.TID 0000.0001) useExfYearlyFields = /* add extension _YEAR to input file names */
(PID.TID 0000.0001)                   T
(PID.TID 0000.0001)     ;
(PID.TID 0000.0001) twoDigitYear = /* use 2-digit year extension */
(PID.TID 0000.0001)                   F
(PID.TID 0000.0001)     ;
(PID.TID 0000.0001) useExfCheckRange = /* check for fields range */
(PID.TID 0000.0001)                   F
(PID.TID 0000.0001)     ;
(PID.TID 0000.0001) exf_output_interp = /* output directly interpolation result */
(PID.TID 0000.0001)                   F
(PID.TID 0000.0001)     ;
(PID.TID 0000.0001) exf_debugLev = /* select EXF-debug printing level */
(PID.TID 0000.0001)                       1
(PID.TID 0000.0001)     ;
(PID.TID 0000.0001) exf_monFreq  = /* EXF monitor frequency [ s ] */
(PID.TID 0000.0001)                 6.307200000000000E+06
(PID.TID 0000.0001)     ;
(PID.TID 0000.0001) repeatPeriod = /* period for cycling forcing dataset [ s ] */
(PID.TID 0000.0001)                 0.000000000000000E+00
(PID.TID 0000.0001)     ;
(PID.TID 0000.0001) climTempFreeze= /* Minimum climatological temperature [deg.C] */
(PID.TID 0000.0001)                -1.900000000000000E+00
(PID.TID 0000.0001)     ;
(PID.TID 0000.0001) windStressMax = /* Maximum absolute windstress [ Pa ] */
(PID.TID 0000.0001)                 2.000000000000000E+00
(PID.TID 0000.0001)     ;
(PID.TID 0000.0001) stressIsOnCgrid = /* set u,v_stress on Arakawa C-grid */
(PID.TID 0000.0001)                   F
(PID.TID 0000.0001)     ;
(PID.TID 0000.0001) rotateStressOnAgrid = /* rotate u,v_stress on Arakawa A-grid */
(PID.TID 0000.0001)                   T
(PID.TID 0000.0001)     ;
(PID.TID 0000.0001) cen2kel = /* conversion of deg. Centigrade to Kelvin [K] */
(PID.TID 0000.0001)                 2.731500000000000E+02
(PID.TID 0000.0001)     ;
(PID.TID 0000.0001) gravity_mks= /* gravitational acceleration [m/s^2] */
(PID.TID 0000.0001)                 9.810000000000000E+00
(PID.TID 0000.0001)     ;
(PID.TID 0000.0001) atmrho =  /* mean atmospheric density [kg/m^3] */
(PID.TID 0000.0001)                 1.200000000000000E+00
(PID.TID 0000.0001)     ;
(PID.TID 0000.0001) atmcp =  /* mean atmospheric specific heat [J/kg/K] */
(PID.TID 0000.0001)                 1.005000000000000E+03
(PID.TID 0000.0001)     ;
(PID.TID 0000.0001) flamb =  /* latent heat of evaporation [J/kg] */
(PID.TID 0000.0001)                 2.500000000000000E+06
(PID.TID 0000.0001)     ;
(PID.TID 0000.0001) flami =  /* latent heat of pure-ice melting [J/kg] */
(PID.TID 0000.0001)                 3.340000000000000E+05
(PID.TID 0000.0001)     ;
(PID.TID 0000.0001) cvapor_fac = /* const. for Saturation calculation [?] */
(PID.TID 0000.0001)                 6.403800000000000E+05
(PID.TID 0000.0001)     ;
(PID.TID 0000.0001) cvapor_exp = /* const. for Saturation calculation [?] */
(PID.TID 0000.0001)                 5.107400000000000E+03
(PID.TID 0000.0001)     ;
(PID.TID 0000.0001) cvapor_fac_ice= /* const. for Saturation calculation [?] */
(PID.TID 0000.0001)                 1.163780000000000E+07
(PID.TID 0000.0001)     ;
(PID.TID 0000.0001) cvapor_exp_ice= /* const. for Saturation calculation [?] */
(PID.TID 0000.0001)                 5.897800000000000E+03
(PID.TID 0000.0001)     ;
(PID.TID 0000.0001) humid_fac = /* humidity coef. in virtual temp. [(kg/kg)^-1] */
(PID.TID 0000.0001)                 6.060000000000000E-01
(PID.TID 0000.0001)     ;
(PID.TID 0000.0001) gamma_blk = /* adiabatic lapse rate [?] */
(PID.TID 0000.0001)                 1.000000000000000E-02
(PID.TID 0000.0001)     ;
(PID.TID 0000.0001) saltsat = /* reduction of Qsat over salty water [-] */
(PID.TID 0000.0001)                 9.800000000000000E-01
(PID.TID 0000.0001)     ;
(PID.TID 0000.0001) noNegativeEvap = /* prevent negative Evaporation */
(PID.TID 0000.0001)                   F
(PID.TID 0000.0001)     ;
(PID.TID 0000.0001) sstExtrapol = /* extrapolation coeff from lev. 1 & 2 to surf [-] */
(PID.TID 0000.0001)                 0.000000000000000E+00
(PID.TID 0000.0001)     ;
(PID.TID 0000.0001) cDrag_1 = /* coef used in drag calculation [?] */
(PID.TID 0000.0001)                 2.700000000000000E-03
(PID.TID 0000.0001)     ;
(PID.TID 0000.0001) cDrag_2 = /* coef used in drag calculation [?] */
(PID.TID 0000.0001)                 1.420000000000000E-04
(PID.TID 0000.0001)     ;
(PID.TID 0000.0001) cDrag_3 = /* coef used in drag calculation [?] */
(PID.TID 0000.0001)                 7.640000000000000E-05
(PID.TID 0000.0001)     ;
(PID.TID 0000.0001) cStanton_1 = /* coef used in Stanton number calculation [?] */
(PID.TID 0000.0001)                 3.270000000000000E-02
(PID.TID 0000.0001)     ;
(PID.TID 0000.0001) cStanton_2 = /* coef used in Stanton number calculation [?] */
(PID.TID 0000.0001)                 1.800000000000000E-02
(PID.TID 0000.0001)     ;
(PID.TID 0000.0001) cDalton = /* coef used in Dalton number calculation [?] */
(PID.TID 0000.0001)                 3.460000000000000E-02
(PID.TID 0000.0001)     ;
(PID.TID 0000.0001) exf_scal_BulkCdn= /* Drag coefficient scaling factor [-] */
(PID.TID 0000.0001)                 1.000000000000000E+00
(PID.TID 0000.0001)     ;
(PID.TID 0000.0001) zolmin = /* minimum stability parameter [?] */
(PID.TID 0000.0001)                -1.000000000000000E+02
(PID.TID 0000.0001)     ;
(PID.TID 0000.0001) psim_fac = /* coef used in turbulent fluxes calculation [-] */
(PID.TID 0000.0001)                 5.000000000000000E+00
(PID.TID 0000.0001)     ;
(PID.TID 0000.0001) zref =  /* reference height [ m ] */
(PID.TID 0000.0001)                 1.000000000000000E+01
(PID.TID 0000.0001)     ;
(PID.TID 0000.0001) hu =  /* height of mean wind [ m ] */
(PID.TID 0000.0001)                 1.000000000000000E+01
(PID.TID 0000.0001)     ;
(PID.TID 0000.0001) ht =  /* height of mean temperature [ m ] */
(PID.TID 0000.0001)                 2.000000000000000E+00
(PID.TID 0000.0001)     ;
(PID.TID 0000.0001) hq =  /* height of mean spec.humidity [ m ] */
(PID.TID 0000.0001)                 2.000000000000000E+00
(PID.TID 0000.0001)     ;
(PID.TID 0000.0001) uMin = /* minimum wind speed [m/s] */
(PID.TID 0000.0001)                 5.000000000000000E-01
(PID.TID 0000.0001)     ;
(PID.TID 0000.0001) useStabilityFct_overIce= /* transfert Coeffs over sea-ice depend on stability */
(PID.TID 0000.0001)                   F
(PID.TID 0000.0001)     ;
(PID.TID 0000.0001) exf_iceCd = /* drag coefficient over sea-ice (fixed) [-] */
(PID.TID 0000.0001)                 1.630000000000000E-03
(PID.TID 0000.0001)     ;
(PID.TID 0000.0001) exf_iceCe = /* transfert coeff. over sea-ice, for Evap (fixed) [-] */
(PID.TID 0000.0001)                 1.630000000000000E-03
(PID.TID 0000.0001)     ;
(PID.TID 0000.0001) exf_iceCh = /* transfert coeff. over sea-ice, Sens.Heat.(fixed)[-] */
(PID.TID 0000.0001)                 1.630000000000000E-03
(PID.TID 0000.0001)     ;
(PID.TID 0000.0001) exf_albedo =  /* Sea-water albedo [-] */
(PID.TID 0000.0001)                 1.000000000000000E-01
(PID.TID 0000.0001)     ;
(PID.TID 0000.0001) useExfZenAlbedo = /* Sea-water albedo varies with zenith angle */
(PID.TID 0000.0001)                   T
(PID.TID 0000.0001)     ;
(PID.TID 0000.0001) select_ZenAlbedo = /* Sea-water albedo computation method */
(PID.TID 0000.0001)                       1
(PID.TID 0000.0001)     ;
(PID.TID 0000.0001) useExfZenIncoming = /* compute incoming solar radiation */
(PID.TID 0000.0001)                   T
(PID.TID 0000.0001)     ;
(PID.TID 0000.0001) ocean_emissivity = /* longwave ocean-surface emissivity [-] */
(PID.TID 0000.0001)                 9.700000000000000E-01
(PID.TID 0000.0001)     ;
(PID.TID 0000.0001) ice_emissivity = /* longwave seaice emissivity [-] */
(PID.TID 0000.0001)                 9.500000000000000E-01
(PID.TID 0000.0001)     ;
(PID.TID 0000.0001) snow_emissivity = /* longwave snow  emissivity [-] */
(PID.TID 0000.0001)                 9.500000000000000E-01
(PID.TID 0000.0001)     ;
(PID.TID 0000.0001) 
(PID.TID 0000.0001)  EXF main CPP flags:
(PID.TID 0000.0001) 
(PID.TID 0000.0001) // USE_EXF_INTERPOLATION:              defined
(PID.TID 0000.0001) // ALLOW_ATM_TEMP:                     defined
(PID.TID 0000.0001) // ALLOW_ATM_WIND (useAtmWind):    NOT defined
(PID.TID 0000.0001) // ALLOW_DOWNWARD_RADIATION:           defined
(PID.TID 0000.0001) // ALLOW_BULKFORMULAE:                 defined
(PID.TID 0000.0001) 
(PID.TID 0000.0001)    Zonal wind stress forcing starts at               10800.
(PID.TID 0000.0001)    Zonal wind stress forcing period is               21600.
(PID.TID 0000.0001)    Zonal wind stress forcing repeat-cycle is             0.
(PID.TID 0000.0001)    Zonal wind stress forcing is read from file:
(PID.TID 0000.0001)    >> eccov4r4_ustr <<
(PID.TID 0000.0001)    assume "ustress" on model-grid (no interpolation)
(PID.TID 0000.0001) 
(PID.TID 0000.0001)    Meridional wind stress forcing starts at          10800.
(PID.TID 0000.0001)    Meridional wind stress forcing period is          21600.
(PID.TID 0000.0001)    Meridional wind stress forcing rep-cycle is           0.
(PID.TID 0000.0001)    Meridional wind stress forcing is read from file:
(PID.TID 0000.0001)    >> eccov4r4_vstr <<
(PID.TID 0000.0001)    assume "vstress" on model-grid (no interpolation)
(PID.TID 0000.0001)     Interp. U & V comp. together: uvInterp_stress =    F
(PID.TID 0000.0001) 
(PID.TID 0000.0001)    Atmospheric temperature starts at                 10800.
(PID.TID 0000.0001)    Atmospheric temperature period is                 21600.
(PID.TID 0000.0001)    Atmospheric temperature repeat-cycle is               0.
(PID.TID 0000.0001)    Atmospheric temperature is read from file:
(PID.TID 0000.0001)    >> eccov4r4_tmp2m_degC <<
(PID.TID 0000.0001)    assume "atemp" on model-grid (no interpolation)
(PID.TID 0000.0001) 
(PID.TID 0000.0001)    Atmospheric specific humidity starts at           10800.
(PID.TID 0000.0001)    Atmospheric specific humidity period is           21600.
(PID.TID 0000.0001)    Atmospheric specific humidity rep-cycle is            0.
(PID.TID 0000.0001)    Atmospheric specific humidity is read from file:
(PID.TID 0000.0001)    >> eccov4r4_spfh2m <<
(PID.TID 0000.0001)    assume "aqh" on model-grid (no interpolation)
(PID.TID 0000.0001) 
(PID.TID 0000.0001) // ALLOW_READ_TURBFLUXES:          NOT defined
(PID.TID 0000.0001) // EXF_READ_EVAP:                  NOT defined
(PID.TID 0000.0001) 
(PID.TID 0000.0001)    Precipitation data starts at                      10800.
(PID.TID 0000.0001)    Precipitation data period is                      21600.
(PID.TID 0000.0001)    Precipitation data repeat-cycle is                    0.
(PID.TID 0000.0001)    Precipitation data is read from file:
(PID.TID 0000.0001)    >> eccov4r4_rain <<
(PID.TID 0000.0001)    assume "precip" on model-grid (no interpolation)
(PID.TID 0000.0001) 
(PID.TID 0000.0001) // ALLOW_RUNOFF:                       defined
(PID.TID 0000.0001)    Runoff data period is                               -12.
(PID.TID 0000.0001)    Runoff data is read from file:
(PID.TID 0000.0001)    >> runoff-2d-Fekete-1deg-mon-V4-SMOOTH.bin <<
(PID.TID 0000.0001)    assume "runoff" on model-grid (no interpolation)
(PID.TID 0000.0001) 
(PID.TID 0000.0001) // ALLOW_RUNOFTEMP:                NOT defined
(PID.TID 0000.0001) // ALLOW_SALTFLX:                      defined
(PID.TID 0000.0001) 
(PID.TID 0000.0001)    Downward shortwave flux starts at                 10800.
(PID.TID 0000.0001)    Downward shortwave flux period is                 21600.
(PID.TID 0000.0001)    Downward shortwave flux repeat-cycle is               0.
(PID.TID 0000.0001)    Downward shortwave flux is read from file:
(PID.TID 0000.0001)    >> eccov4r4_dsw <<
(PID.TID 0000.0001)    assume "swdown" on model-grid (no interpolation)
(PID.TID 0000.0001) 
(PID.TID 0000.0001)    Downward longwave flux starts at                  10800.
(PID.TID 0000.0001)    Downward longwave flux period is                  21600.
(PID.TID 0000.0001)    Downward longwave flux repeat-cycle is                0.
(PID.TID 0000.0001)    Downward longwave flux is read from file:
(PID.TID 0000.0001)    >> eccov4r4_dlw <<
(PID.TID 0000.0001)    assume "lwdown" on model-grid (no interpolation)
(PID.TID 0000.0001) 
(PID.TID 0000.0001)    Atmospheric pressure forcing starts at            10800.
(PID.TID 0000.0001)    Atmospheric pressure forcing period is            21600.
(PID.TID 0000.0001)    Atmospheric pressure forcing rep-cycle is             0.
(PID.TID 0000.0001)    Atmospheric pressure forcing is read from file:
(PID.TID 0000.0001)    >> eccov4r4_pres <<
(PID.TID 0000.0001)    assume "apressure" on model-grid (no interpolation)
(PID.TID 0000.0001) 
(PID.TID 0000.0001) // =======================================================
(PID.TID 0000.0001) // External forcing (EXF) climatology configuration :
(PID.TID 0000.0001) // =======================================================
(PID.TID 0000.0001) 
(PID.TID 0000.0001) // ALLOW_CLIMSST_RELAXATION:           defined
(PID.TID 0000.0001)    climsst relaxation is NOT used
(PID.TID 0000.0001) 
(PID.TID 0000.0001) // ALLOW_CLIMSSS_RELAXATION:           defined
(PID.TID 0000.0001)    climsss relaxation is NOT used
(PID.TID 0000.0001) 
(PID.TID 0000.0001) // =======================================================
(PID.TID 0000.0001) // External forcing (EXF) configuration  >>> END <<<
(PID.TID 0000.0001) // =======================================================
(PID.TID 0000.0001) 
(PID.TID 0000.0001)  OPEN_COPY_DATA_FILE: opening file GRACE_jpl_rl05m_20180122_SpatialMean.asc
(PID.TID 0000.0001) // =======================================================
(PID.TID 0000.0001) // Parameter file "GRACE_jpl_rl05m_20180122_SpatialMean.asc"
(PID.TID 0000.0001) // =======================================================
(PID.TID 0000.0001) >  -999.0000
(PID.TID 0000.0001) >  -999.0000
(PID.TID 0000.0001) >  -999.0000
(PID.TID 0000.0001) >  -999.0000
(PID.TID 0000.0001) >  -999.0000
(PID.TID 0000.0001) >  -999.0000
(PID.TID 0000.0001) >  -999.0000
(PID.TID 0000.0001) >  -999.0000
(PID.TID 0000.0001) >  -999.0000
(PID.TID 0000.0001) >  -999.0000
(PID.TID 0000.0001) >  -999.0000
(PID.TID 0000.0001) >  -999.0000
(PID.TID 0000.0001) >  -999.0000
(PID.TID 0000.0001) >  -999.0000
(PID.TID 0000.0001) >  -999.0000
(PID.TID 0000.0001) >  -999.0000
(PID.TID 0000.0001) >  -999.0000
(PID.TID 0000.0001) >  -999.0000
(PID.TID 0000.0001) >  -999.0000
(PID.TID 0000.0001) >  -999.0000
(PID.TID 0000.0001) >  -999.0000
(PID.TID 0000.0001) >  -999.0000
(PID.TID 0000.0001) >  -999.0000
(PID.TID 0000.0001) >  -999.0000
(PID.TID 0000.0001) >  -999.0000
(PID.TID 0000.0001) >  -999.0000
(PID.TID 0000.0001) >  -999.0000
(PID.TID 0000.0001) >  -999.0000
(PID.TID 0000.0001) >  -999.0000
(PID.TID 0000.0001) >  -999.0000
(PID.TID 0000.0001) >  -999.0000
(PID.TID 0000.0001) >  -999.0000
(PID.TID 0000.0001) >  -999.0000
(PID.TID 0000.0001) >  -999.0000
(PID.TID 0000.0001) >  -999.0000
(PID.TID 0000.0001) >  -999.0000
(PID.TID 0000.0001) >  -999.0000
(PID.TID 0000.0001) >  -999.0000
(PID.TID 0000.0001) >  -999.0000
(PID.TID 0000.0001) >  -999.0000
(PID.TID 0000.0001) >  -999.0000
(PID.TID 0000.0001) >  -999.0000
(PID.TID 0000.0001) >  -999.0000
(PID.TID 0000.0001) >  -999.0000
(PID.TID 0000.0001) >  -999.0000
(PID.TID 0000.0001) >  -999.0000
(PID.TID 0000.0001) >  -999.0000
(PID.TID 0000.0001) >  -999.0000
(PID.TID 0000.0001) >  -999.0000
(PID.TID 0000.0001) >  -999.0000
(PID.TID 0000.0001) >  -999.0000
(PID.TID 0000.0001) >  -999.0000
(PID.TID 0000.0001) >  -999.0000
(PID.TID 0000.0001) >  -999.0000
(PID.TID 0000.0001) >  -999.0000
(PID.TID 0000.0001) >  -999.0000
(PID.TID 0000.0001) >  -999.0000
(PID.TID 0000.0001) >  -999.0000
(PID.TID 0000.0001) >  -999.0000
(PID.TID 0000.0001) >  -999.0000
(PID.TID 0000.0001) >  -999.0000
(PID.TID 0000.0001) >  -999.0000
(PID.TID 0000.0001) >  -999.0000
(PID.TID 0000.0001) >  -999.0000
(PID.TID 0000.0001) >  -999.0000
(PID.TID 0000.0001) >  -999.0000
(PID.TID 0000.0001) >  -999.0000
(PID.TID 0000.0001) >  -999.0000
(PID.TID 0000.0001) >  -999.0000
(PID.TID 0000.0001) >  -999.0000
(PID.TID 0000.0001) >  -999.0000
(PID.TID 0000.0001) >  -999.0000
(PID.TID 0000.0001) >  -999.0000
(PID.TID 0000.0001) >  -999.0000
(PID.TID 0000.0001) >  -999.0000
(PID.TID 0000.0001) >  -999.0000
(PID.TID 0000.0001) >  -999.0000
(PID.TID 0000.0001) >  -999.0000
(PID.TID 0000.0001) >  -999.0000
(PID.TID 0000.0001) >  -999.0000
(PID.TID 0000.0001) >  -999.0000
(PID.TID 0000.0001) >  -999.0000
(PID.TID 0000.0001) >  -999.0000
(PID.TID 0000.0001) >  -999.0000
(PID.TID 0000.0001) >  -999.0000
(PID.TID 0000.0001) >  -999.0000
(PID.TID 0000.0001) >  -999.0000
(PID.TID 0000.0001) >  -999.0000
(PID.TID 0000.0001) >  -999.0000
(PID.TID 0000.0001) >  -999.0000
(PID.TID 0000.0001) >  -999.0000
(PID.TID 0000.0001) >  -999.0000
(PID.TID 0000.0001) >  -999.0000
(PID.TID 0000.0001) >  -999.0000
(PID.TID 0000.0001) >  -999.0000
(PID.TID 0000.0001) >  -999.0000
(PID.TID 0000.0001) >  -999.0000
(PID.TID 0000.0001) >  -999.0000
(PID.TID 0000.0001) >  -999.0000
(PID.TID 0000.0001) >  -999.0000
(PID.TID 0000.0001) >  -999.0000
(PID.TID 0000.0001) >  -999.0000
(PID.TID 0000.0001) >  -999.0000
(PID.TID 0000.0001) >  -999.0000
(PID.TID 0000.0001) >  -999.0000
(PID.TID 0000.0001) >  -999.0000
(PID.TID 0000.0001) >  -999.0000
(PID.TID 0000.0001) >  -999.0000
(PID.TID 0000.0001) >  -999.0000
(PID.TID 0000.0001) >  -999.0000
(PID.TID 0000.0001) >  -999.0000
(PID.TID 0000.0001) >  -999.0000
(PID.TID 0000.0001) >  -999.0000
(PID.TID 0000.0001) >  -999.0000
(PID.TID 0000.0001) >  -999.0000
(PID.TID 0000.0001) >  -999.0000
(PID.TID 0000.0001) >  -999.0000
(PID.TID 0000.0001) >  -999.0000
(PID.TID 0000.0001) >  -999.0000
(PID.TID 0000.0001) >  -999.0000
(PID.TID 0000.0001) >  -999.0000
(PID.TID 0000.0001) >  -999.0000
(PID.TID 0000.0001) >  -999.0000
(PID.TID 0000.0001) >    -1.5388
(PID.TID 0000.0001) >  -999.0000
(PID.TID 0000.0001) >  -999.0000
(PID.TID 0000.0001) >  -999.0000
(PID.TID 0000.0001) >    -0.0248
(PID.TID 0000.0001) >     0.2932
(PID.TID 0000.0001) >     0.3102
(PID.TID 0000.0001) >     0.0922
(PID.TID 0000.0001) >    -0.0298
(PID.TID 0000.0001) >    -0.4188
(PID.TID 0000.0001) >    -0.6158
(PID.TID 0000.0001) >    -0.9188
(PID.TID 0000.0001) >    -0.9888
(PID.TID 0000.0001) >  -999.0000
(PID.TID 0000.0001) >  -999.0000
(PID.TID 0000.0001) >    -0.3688
(PID.TID 0000.0001) >     0.1912
(PID.TID 0000.0001) >     0.2652
(PID.TID 0000.0001) >     0.4822
(PID.TID 0000.0001) >     0.2602
(PID.TID 0000.0001) >    -0.0588
(PID.TID 0000.0001) >  -999.0000
(PID.TID 0000.0001) >    -0.7528
(PID.TID 0000.0001) >    -0.8628
(PID.TID 0000.0001) >    -1.3578
(PID.TID 0000.0001) >    -1.2408
(PID.TID 0000.0001) >    -0.6928
(PID.TID 0000.0001) >    -0.3358
(PID.TID 0000.0001) >     0.0592
(PID.TID 0000.0001) >     0.2422
(PID.TID 0000.0001) >     0.4852
(PID.TID 0000.0001) >     0.2622
(PID.TID 0000.0001) >    -0.0378
(PID.TID 0000.0001) >    -0.2518
(PID.TID 0000.0001) >    -0.6918
(PID.TID 0000.0001) >    -1.0148
(PID.TID 0000.0001) >    -1.1048
(PID.TID 0000.0001) >    -0.9988
(PID.TID 0000.0001) >    -0.4218
(PID.TID 0000.0001) >    -0.0018
(PID.TID 0000.0001) >     0.2812
(PID.TID 0000.0001) >     0.4302
(PID.TID 0000.0001) >     0.6062
(PID.TID 0000.0001) >     0.6752
(PID.TID 0000.0001) >     0.1732
(PID.TID 0000.0001) >    -0.1758
(PID.TID 0000.0001) >    -0.6118
(PID.TID 0000.0001) >    -1.0758
(PID.TID 0000.0001) >    -1.2518
(PID.TID 0000.0001) >    -0.9708
(PID.TID 0000.0001) >    -0.7618
(PID.TID 0000.0001) >     0.0952
(PID.TID 0000.0001) >     0.3142
(PID.TID 0000.0001) >     0.7172
(PID.TID 0000.0001) >     1.0472
(PID.TID 0000.0001) >     0.5252
(PID.TID 0000.0001) >     0.0522
(PID.TID 0000.0001) >    -0.3888
(PID.TID 0000.0001) >    -0.5848
(PID.TID 0000.0001) >    -0.8598
(PID.TID 0000.0001) >    -0.9228
(PID.TID 0000.0001) >    -0.8378
(PID.TID 0000.0001) >    -0.4348
(PID.TID 0000.0001) >     0.0402
(PID.TID 0000.0001) >     0.4342
(PID.TID 0000.0001) >     0.7352
(PID.TID 0000.0001) >     0.9632
(PID.TID 0000.0001) >     0.8602
(PID.TID 0000.0001) >     0.5092
(PID.TID 0000.0001) >     0.2892
(PID.TID 0000.0001) >    -0.2408
(PID.TID 0000.0001) >    -0.7448
(PID.TID 0000.0001) >    -0.8738
(PID.TID 0000.0001) >    -0.6528
(PID.TID 0000.0001) >    -0.2038
(PID.TID 0000.0001) >     0.3092
(PID.TID 0000.0001) >     0.5212
(PID.TID 0000.0001) >     0.7532
(PID.TID 0000.0001) >     1.0612
(PID.TID 0000.0001) >     0.9722
(PID.TID 0000.0001) >     0.6242
(PID.TID 0000.0001) >     0.1832
(PID.TID 0000.0001) >    -0.1248
(PID.TID 0000.0001) >    -0.5758
(PID.TID 0000.0001) >    -0.7968
(PID.TID 0000.0001) >    -0.5058
(PID.TID 0000.0001) >    -0.0158
(PID.TID 0000.0001) >     0.3082
(PID.TID 0000.0001) >     0.7482
(PID.TID 0000.0001) >     1.0622
(PID.TID 0000.0001) >     1.3502
(PID.TID 0000.0001) >     1.2482
(PID.TID 0000.0001) >     0.8732
(PID.TID 0000.0001) >     0.2372
(PID.TID 0000.0001) >     0.0282
(PID.TID 0000.0001) >    -0.1598
(PID.TID 0000.0001) >    -0.2458
(PID.TID 0000.0001) >    -0.2478
(PID.TID 0000.0001) >     0.2942
(PID.TID 0000.0001) >     0.7142
(PID.TID 0000.0001) >     1.0932
(PID.TID 0000.0001) >     1.4212
(PID.TID 0000.0001) >     1.4302
(PID.TID 0000.0001) >     1.3282
(PID.TID 0000.0001) >     0.7382
(PID.TID 0000.0001) >  -999.0000
(PID.TID 0000.0001) >    -0.0198
(PID.TID 0000.0001) >    -0.3278
(PID.TID 0000.0001) >    -0.6478
(PID.TID 0000.0001) >    -0.3818
(PID.TID 0000.0001) >  -999.0000
(PID.TID 0000.0001) >     0.7452
(PID.TID 0000.0001) >     1.1822
(PID.TID 0000.0001) >     1.4902
(PID.TID 0000.0001) >     1.5122
(PID.TID 0000.0001) >  -999.0000
(PID.TID 0000.0001) >  -999.0000
(PID.TID 0000.0001) >     0.8362
(PID.TID 0000.0001) >     0.5392
(PID.TID 0000.0001) >     0.0162
(PID.TID 0000.0001) >  -999.0000
(PID.TID 0000.0001) >  -999.0000
(PID.TID 0000.0001) >     0.8882
(PID.TID 0000.0001) >     1.3982
(PID.TID 0000.0001) >     1.7702
(PID.TID 0000.0001) >     1.8042
(PID.TID 0000.0001) >  -999.0000
(PID.TID 0000.0001) >     1.8312
(PID.TID 0000.0001) >     1.7052
(PID.TID 0000.0001) >     1.3232
(PID.TID 0000.0001) >     1.0082
(PID.TID 0000.0001) >  -999.0000
(PID.TID 0000.0001) >  -999.0000
(PID.TID 0000.0001) >     0.5862
(PID.TID 0000.0001) >     0.9022
(PID.TID 0000.0001) >     1.4452
(PID.TID 0000.0001) >  -999.0000
(PID.TID 0000.0001) >  -999.0000
(PID.TID 0000.0001) >     2.0492
(PID.TID 0000.0001) >     1.7562
(PID.TID 0000.0001) >     1.4922
(PID.TID 0000.0001) >  -999.0000
(PID.TID 0000.0001) >  -999.0000
(PID.TID 0000.0001) >     0.4932
(PID.TID 0000.0001) >     0.4712
(PID.TID 0000.0001) >     0.4242
(PID.TID 0000.0001) >     0.7852
(PID.TID 0000.0001) >  -999.0000
(PID.TID 0000.0001) >     1.8622
(PID.TID 0000.0001) >     2.1782
(PID.TID 0000.0001) >     2.2842
(PID.TID 0000.0001) >     1.9402
(PID.TID 0000.0001) >  -999.0000
(PID.TID 0000.0001) >  -999.0000
(PID.TID 0000.0001) >     1.2932
(PID.TID 0000.0001) >     1.1872
(PID.TID 0000.0001) >     0.8952
(PID.TID 0000.0001) >  -999.0000
(PID.TID 0000.0001) >  -999.0000
(PID.TID 0000.0001) >     1.8022
(PID.TID 0000.0001) >     2.5012
(PID.TID 0000.0001) >     2.8002
(PID.TID 0000.0001) >  -999.0000
(PID.TID 0000.0001) >  -999.0000
(PID.TID 0000.0001) >  -999.0000
(PID.TID 0000.0001) >     2.2922
(PID.TID 0000.0001) >     1.7692
(PID.TID 0000.0001) >     1.3192
(PID.TID 0000.0001) >  -999.0000
(PID.TID 0000.0001) >  -999.0000
(PID.TID 0000.0001) >     1.7062
(PID.TID 0000.0001) >     2.0142
(PID.TID 0000.0001) >  -999.0000
(PID.TID 0000.0001) >  -999.0000
(PID.TID 0000.0001) >  -999.0000
(PID.TID 0000.0001) >  -999.0000
(PID.TID 0000.0001) >  -999.0000
(PID.TID 0000.0001) >  -999.0000
(PID.TID 0000.0001) >  -999.0000
(PID.TID 0000.0001) >  -999.0000
(PID.TID 0000.0001) >  -999.0000
(PID.TID 0000.0001) >  -999.0000
(PID.TID 0000.0001) >  -999.0000
(PID.TID 0000.0001) >  -999.0000
(PID.TID 0000.0001) >  -999.0000
(PID.TID 0000.0001) >  -999.0000
(PID.TID 0000.0001) >  -999.0000
(PID.TID 0000.0001) >  -999.0000
(PID.TID 0000.0001) >  -999.0000
(PID.TID 0000.0001) 
(PID.TID 0000.0001)  OPEN_COPY_DATA_FILE: opening file 20180228_ensemble_average_gmsl_ref.asc
(PID.TID 0000.0001) // =======================================================
(PID.TID 0000.0001) // Parameter file "20180228_ensemble_average_gmsl_ref.asc"
(PID.TID 0000.0001) // =======================================================
(PID.TID 0000.0001) >     -999.00000000
(PID.TID 0000.0001) >     -999.00000000
(PID.TID 0000.0001) >     -999.00000000
(PID.TID 0000.0001) >     -999.00000000
(PID.TID 0000.0001) >     -999.00000000
(PID.TID 0000.0001) >     -999.00000000
(PID.TID 0000.0001) >     -999.00000000
(PID.TID 0000.0001) >     -999.00000000
(PID.TID 0000.0001) >     -999.00000000
(PID.TID 0000.0001) >     -999.00000000
(PID.TID 0000.0001) >     -999.00000000
(PID.TID 0000.0001) >     -999.00000000
(PID.TID 0000.0001) >       -0.04147270
(PID.TID 0000.0001) >       -0.04237865
(PID.TID 0000.0001) >       -0.04097288
(PID.TID 0000.0001) >       -0.04090154
(PID.TID 0000.0001) >       -0.04112925
(PID.TID 0000.0001) >       -0.04106228
(PID.TID 0000.0001) >       -0.03907203
(PID.TID 0000.0001) >       -0.03618315
(PID.TID 0000.0001) >       -0.03250311
(PID.TID 0000.0001) >       -0.02982531
(PID.TID 0000.0001) >       -0.03084511
(PID.TID 0000.0001) >       -0.03170664
(PID.TID 0000.0001) >       -0.03477146
(PID.TID 0000.0001) >       -0.03727155
(PID.TID 0000.0001) >       -0.03671943
(PID.TID 0000.0001) >       -0.03633736
(PID.TID 0000.0001) >       -0.03893056
(PID.TID 0000.0001) >       -0.03990498
(PID.TID 0000.0001) >       -0.03901100
(PID.TID 0000.0001) >       -0.03510541
(PID.TID 0000.0001) >       -0.03136623
(PID.TID 0000.0001) >       -0.02858639
(PID.TID 0000.0001) >       -0.02847964
(PID.TID 0000.0001) >       -0.03107087
(PID.TID 0000.0001) >       -0.03199374
(PID.TID 0000.0001) >       -0.03270754
(PID.TID 0000.0001) >       -0.03356637
(PID.TID 0000.0001) >       -0.03534618
(PID.TID 0000.0001) >       -0.03607659
(PID.TID 0000.0001) >       -0.03615414
(PID.TID 0000.0001) >       -0.03647404
(PID.TID 0000.0001) >       -0.03376810
(PID.TID 0000.0001) >       -0.02786484
(PID.TID 0000.0001) >       -0.02478499
(PID.TID 0000.0001) >       -0.02488398
(PID.TID 0000.0001) >       -0.02710032
(PID.TID 0000.0001) >       -0.03092830
(PID.TID 0000.0001) >       -0.03130595
(PID.TID 0000.0001) >       -0.03171272
(PID.TID 0000.0001) >       -0.03196083
(PID.TID 0000.0001) >       -0.03180755
(PID.TID 0000.0001) >       -0.03187516
(PID.TID 0000.0001) >       -0.02950634
(PID.TID 0000.0001) >       -0.02781836
(PID.TID 0000.0001) >       -0.02399761
(PID.TID 0000.0001) >       -0.01780496
(PID.TID 0000.0001) >       -0.01720086
(PID.TID 0000.0001) >       -0.02412198
(PID.TID 0000.0001) >       -0.02897271
(PID.TID 0000.0001) >       -0.03068367
(PID.TID 0000.0001) >       -0.03020304
(PID.TID 0000.0001) >       -0.03016213
(PID.TID 0000.0001) >       -0.02944090
(PID.TID 0000.0001) >       -0.02861399
(PID.TID 0000.0001) >       -0.02572239
(PID.TID 0000.0001) >       -0.02144631
(PID.TID 0000.0001) >       -0.01591145
(PID.TID 0000.0001) >       -0.01305523
(PID.TID 0000.0001) >       -0.01522997
(PID.TID 0000.0001) >       -0.01967341
(PID.TID 0000.0001) >       -0.02261823
(PID.TID 0000.0001) >       -0.02340964
(PID.TID 0000.0001) >       -0.02382727
(PID.TID 0000.0001) >       -0.02408131
(PID.TID 0000.0001) >       -0.02546367
(PID.TID 0000.0001) >       -0.02656347
(PID.TID 0000.0001) >       -0.02483889
(PID.TID 0000.0001) >       -0.02215362
(PID.TID 0000.0001) >       -0.01922804
(PID.TID 0000.0001) >       -0.01714474
(PID.TID 0000.0001) >       -0.01734868
(PID.TID 0000.0001) >       -0.01971341
(PID.TID 0000.0001) >       -0.02252271
(PID.TID 0000.0001) >       -0.02418757
(PID.TID 0000.0001) >       -0.02435222
(PID.TID 0000.0001) >       -0.02415182
(PID.TID 0000.0001) >       -0.02626419
(PID.TID 0000.0001) >       -0.02637114
(PID.TID 0000.0001) >       -0.02377816
(PID.TID 0000.0001) >       -0.02027127
(PID.TID 0000.0001) >       -0.01640096
(PID.TID 0000.0001) >       -0.01271858
(PID.TID 0000.0001) >       -0.01329467
(PID.TID 0000.0001) >       -0.01365981
(PID.TID 0000.0001) >       -0.01571355
(PID.TID 0000.0001) >       -0.01793811
(PID.TID 0000.0001) >       -0.01976830
(PID.TID 0000.0001) >       -0.02152092
(PID.TID 0000.0001) >       -0.02392259
(PID.TID 0000.0001) >       -0.02386643
(PID.TID 0000.0001) >       -0.02168764
(PID.TID 0000.0001) >       -0.01918088
(PID.TID 0000.0001) >       -0.01430814
(PID.TID 0000.0001) >       -0.00882649
(PID.TID 0000.0001) >       -0.00901079
(PID.TID 0000.0001) >       -0.01193851
(PID.TID 0000.0001) >       -0.01312020
(PID.TID 0000.0001) >       -0.01614753
(PID.TID 0000.0001) >       -0.01635597
(PID.TID 0000.0001) >       -0.01723824
(PID.TID 0000.0001) >       -0.01849779
(PID.TID 0000.0001) >       -0.01771708
(PID.TID 0000.0001) >       -0.01381826
(PID.TID 0000.0001) >       -0.01138890
(PID.TID 0000.0001) >       -0.00656355
(PID.TID 0000.0001) >       -0.00462256
(PID.TID 0000.0001) >       -0.00466037
(PID.TID 0000.0001) >       -0.00768062
(PID.TID 0000.0001) >       -0.00979272
(PID.TID 0000.0001) >       -0.01125056
(PID.TID 0000.0001) >       -0.01299094
(PID.TID 0000.0001) >       -0.01538250
(PID.TID 0000.0001) >       -0.01580836
(PID.TID 0000.0001) >       -0.01490598
(PID.TID 0000.0001) >       -0.01094319
(PID.TID 0000.0001) >       -0.00688015
(PID.TID 0000.0001) >       -0.00454752
(PID.TID 0000.0001) >       -0.00163842
(PID.TID 0000.0001) >       -0.00120365
(PID.TID 0000.0001) >       -0.00330943
(PID.TID 0000.0001) >       -0.00578805
(PID.TID 0000.0001) >       -0.00737440
(PID.TID 0000.0001) >       -0.00914734
(PID.TID 0000.0001) >       -0.01022173
(PID.TID 0000.0001) >       -0.01066046
(PID.TID 0000.0001) >       -0.01151595
(PID.TID 0000.0001) >       -0.01057154
(PID.TID 0000.0001) >       -0.00683359
(PID.TID 0000.0001) >       -0.00140351
(PID.TID 0000.0001) >        0.00162164
(PID.TID 0000.0001) >        0.00082399
(PID.TID 0000.0001) >       -0.00158270
(PID.TID 0000.0001) >       -0.00384391
(PID.TID 0000.0001) >       -0.00644552
(PID.TID 0000.0001) >       -0.00665305
(PID.TID 0000.0001) >       -0.00722688
(PID.TID 0000.0001) >       -0.00877996
(PID.TID 0000.0001) >       -0.00827943
(PID.TID 0000.0001) >       -0.00662335
(PID.TID 0000.0001) >       -0.00434757
(PID.TID 0000.0001) >        0.00020843
(PID.TID 0000.0001) >        0.00271393
(PID.TID 0000.0001) >        0.00216869
(PID.TID 0000.0001) >        0.00091488
(PID.TID 0000.0001) >       -0.00119615
(PID.TID 0000.0001) >       -0.00197838
(PID.TID 0000.0001) >       -0.00326923
(PID.TID 0000.0001) >       -0.00493475
(PID.TID 0000.0001) >       -0.00516213
(PID.TID 0000.0001) >       -0.00463033
(PID.TID 0000.0001) >       -0.00342823
(PID.TID 0000.0001) >       -0.00036215
(PID.TID 0000.0001) >        0.00391399
(PID.TID 0000.0001) >        0.00727962
(PID.TID 0000.0001) >        0.00883675
(PID.TID 0000.0001) >        0.00708760
(PID.TID 0000.0001) >        0.00283303
(PID.TID 0000.0001) >       -0.00005775
(PID.TID 0000.0001) >       -0.00201734
(PID.TID 0000.0001) >       -0.00310832
(PID.TID 0000.0001) >       -0.00310899
(PID.TID 0000.0001) >       -0.00178046
(PID.TID 0000.0001) >       -0.00008680
(PID.TID 0000.0001) >        0.00243197
(PID.TID 0000.0001) >        0.00773053
(PID.TID 0000.0001) >        0.01033648
(PID.TID 0000.0001) >        0.00946383
(PID.TID 0000.0001) >        0.00660276
(PID.TID 0000.0001) >        0.00310204
(PID.TID 0000.0001) >        0.00066316
(PID.TID 0000.0001) >        0.00007108
(PID.TID 0000.0001) >        0.00011690
(PID.TID 0000.0001) >       -0.00081483
(PID.TID 0000.0001) >       -0.00162525
(PID.TID 0000.0001) >       -0.00148614
(PID.TID 0000.0001) >        0.00107289
(PID.TID 0000.0001) >        0.00538297
(PID.TID 0000.0001) >        0.00895235
(PID.TID 0000.0001) >        0.01047932
(PID.TID 0000.0001) >        0.00847417
(PID.TID 0000.0001) >        0.00539799
(PID.TID 0000.0001) >        0.00282624
(PID.TID 0000.0001) >        0.00163986
(PID.TID 0000.0001) >        0.00115355
(PID.TID 0000.0001) >        0.00275862
(PID.TID 0000.0001) >        0.00403121
(PID.TID 0000.0001) >        0.00519214
(PID.TID 0000.0001) >        0.00672258
(PID.TID 0000.0001) >        0.01032091
(PID.TID 0000.0001) >        0.01359020
(PID.TID 0000.0001) >        0.01467404
(PID.TID 0000.0001) >        0.01329685
(PID.TID 0000.0001) >        0.01009228
(PID.TID 0000.0001) >        0.00700790
(PID.TID 0000.0001) >        0.00642086
(PID.TID 0000.0001) >        0.00654674
(PID.TID 0000.0001) >        0.00602162
(PID.TID 0000.0001) >        0.00576382
(PID.TID 0000.0001) >        0.00719312
(PID.TID 0000.0001) >        0.01090523
(PID.TID 0000.0001) >        0.01579733
(PID.TID 0000.0001) >        0.01968412
(PID.TID 0000.0001) >        0.02046005
(PID.TID 0000.0001) >        0.01851100
(PID.TID 0000.0001) >        0.01409794
(PID.TID 0000.0001) >        0.01097860
(PID.TID 0000.0001) >        0.01031540
(PID.TID 0000.0001) >        0.00939064
(PID.TID 0000.0001) >        0.00911685
(PID.TID 0000.0001) >        0.01082404
(PID.TID 0000.0001) >        0.01224243
(PID.TID 0000.0001) >        0.01307233
(PID.TID 0000.0001) >        0.01448105
(PID.TID 0000.0001) >        0.01717605
(PID.TID 0000.0001) >        0.01748673
(PID.TID 0000.0001) >        0.01507983
(PID.TID 0000.0001) >        0.01184131
(PID.TID 0000.0001) >        0.00883508
(PID.TID 0000.0001) >        0.00667820
(PID.TID 0000.0001) >        0.00504999
(PID.TID 0000.0001) >        0.00470485
(PID.TID 0000.0001) >        0.00680446
(PID.TID 0000.0001) >        0.00886402
(PID.TID 0000.0001) >        0.01262384
(PID.TID 0000.0001) >        0.01677563
(PID.TID 0000.0001) >        0.02019074
(PID.TID 0000.0001) >        0.02063724
(PID.TID 0000.0001) >        0.02072811
(PID.TID 0000.0001) >        0.01962652
(PID.TID 0000.0001) >        0.01794813
(PID.TID 0000.0001) >        0.01633759
(PID.TID 0000.0001) >        0.01537694
(PID.TID 0000.0001) >        0.01567859
(PID.TID 0000.0001) >        0.01708372
(PID.TID 0000.0001) >        0.02037311
(PID.TID 0000.0001) >        0.02358307
(PID.TID 0000.0001) >        0.02751593
(PID.TID 0000.0001) >        0.03070397
(PID.TID 0000.0001) >        0.03126814
(PID.TID 0000.0001) >        0.03010550
(PID.TID 0000.0001) >        0.02798674
(PID.TID 0000.0001) >        0.02573000
(PID.TID 0000.0001) >        0.02398622
(PID.TID 0000.0001) >        0.02249828
(PID.TID 0000.0001) >        0.02141529
(PID.TID 0000.0001) >        0.02050706
(PID.TID 0000.0001) >        0.02144277
(PID.TID 0000.0001) >        0.02360970
(PID.TID 0000.0001) >        0.02668396
(PID.TID 0000.0001) >        0.03046590
(PID.TID 0000.0001) >        0.03212708
(PID.TID 0000.0001) >        0.03004662
(PID.TID 0000.0001) >        0.02712121
(PID.TID 0000.0001) >        0.02558150
(PID.TID 0000.0001) >        0.02507455
(PID.TID 0000.0001) >        0.02376230
(PID.TID 0000.0001) >        0.02194285
(PID.TID 0000.0001) >        0.02281129
(PID.TID 0000.0001) >        0.02530421
(PID.TID 0000.0001) >        0.02879413
(PID.TID 0000.0001) >        0.03253911
(PID.TID 0000.0001) >        0.03567068
(PID.TID 0000.0001) >        0.03528119
(PID.TID 0000.0001) >        0.03429798
(PID.TID 0000.0001) >        0.03285426
(PID.TID 0000.0001) >        0.03319703
(PID.TID 0000.0001) >        0.03280700
(PID.TID 0000.0001) >        0.03246718
(PID.TID 0000.0001) >        0.03151321
(PID.TID 0000.0001) >        0.03237005
(PID.TID 0000.0001) >        0.03467840
(PID.TID 0000.0001) >        0.03887486
(PID.TID 0000.0001) >        0.04425615
(PID.TID 0000.0001) >        0.04831862
(PID.TID 0000.0001) >        0.04858530
(PID.TID 0000.0001) >        0.04574655
(PID.TID 0000.0001) >        0.04201343
(PID.TID 0000.0001) >        0.04048565
(PID.TID 0000.0001) >        0.03938458
(PID.TID 0000.0001) >        0.03799471
(PID.TID 0000.0001) >        0.03686806
(PID.TID 0000.0001) >        0.03792774
(PID.TID 0000.0001) >        0.03851224
(PID.TID 0000.0001) >        0.04011639
(PID.TID 0000.0001) >        0.04388373
(PID.TID 0000.0001) >        0.04632144
(PID.TID 0000.0001) >        0.04848074
(PID.TID 0000.0001) >        0.04656891
(PID.TID 0000.0001) >        0.04165369
(PID.TID 0000.0001) >        0.03791665
(PID.TID 0000.0001) >        0.03815636
(PID.TID 0000.0001) >        0.03871958
(PID.TID 0000.0001) >        0.03753415
(PID.TID 0000.0001) >        0.03729899
(PID.TID 0000.0001) >        0.04003057
(PID.TID 0000.0001) >        0.04457429
(PID.TID 0000.0001) >        0.04814349
(PID.TID 0000.0001) >        0.05030210
(PID.TID 0000.0001) >        0.05236099
(PID.TID 0000.0001) >        0.05185569
(PID.TID 0000.0001) 
(PID.TID 0000.0001) etaday defined by gencost  28
(PID.TID 0000.0001) 
(PID.TID 0000.0001) // =======================================================
(PID.TID 0000.0001) // ECCO configuration >>> START <<<
(PID.TID 0000.0001) // =======================================================
(PID.TID 0000.0001) 
(PID.TID 0000.0001) gencost( 1) = siv4-conc
(PID.TID 0000.0001) -------------
(PID.TID 0000.0001)  data file = NOAA_NSIDC_DAILY_v3b_MAPPED_TO_LLC90
(PID.TID 0000.0001)   starts and ends at :
(PID.TID 0000.0001)   19920101  130000  2   6
(PID.TID 0000.0001)   19930630  190000  1   6
(PID.TID 0000.0001)   number of records =   547
(PID.TID 0000.0001)  model file = m_gbar_area
(PID.TID 0000.0001)  error file = sigma_iceconc_eccollc_coastalmask_areascaled.bin
(PID.TID 0000.0001)  gencost_flag =  2
(PID.TID 0000.0001)  gencost_outputlevel =  1
(PID.TID 0000.0001) 
(PID.TID 0000.0001) gencost( 2) = siv4-deconc
(PID.TID 0000.0001) -------------
(PID.TID 0000.0001)  data file = NOAA_NSIDC_DAILY_v3b_MAPPED_TO_LLC90
(PID.TID 0000.0001)   starts and ends at :
(PID.TID 0000.0001)   19920101  130000  2   6
(PID.TID 0000.0001)   19930630  190000  1   6
(PID.TID 0000.0001)   number of records =   547
(PID.TID 0000.0001)  model file = m_gbar_deconc
(PID.TID 0000.0001)  error file = seaiceproxy_sigma_coastalmask_areascaled.bin
(PID.TID 0000.0001)  gencost_flag =  2
(PID.TID 0000.0001)  gencost_outputlevel =  1
(PID.TID 0000.0001) 
(PID.TID 0000.0001) gencost( 3) = siv4-exconc
(PID.TID 0000.0001) -------------
(PID.TID 0000.0001)  data file = NOAA_NSIDC_DAILY_v3b_MAPPED_TO_LLC90
(PID.TID 0000.0001)   starts and ends at :
(PID.TID 0000.0001)   19920101  130000  2   6
(PID.TID 0000.0001)   19930630  190000  1   6
(PID.TID 0000.0001)   number of records =   547
(PID.TID 0000.0001)  model file = m_gbar_exconc
(PID.TID 0000.0001)  error file = seaiceproxy_sigma_coastalmask_areascaled.bin
(PID.TID 0000.0001)  gencost_flag =  2
(PID.TID 0000.0001)  gencost_outputlevel =  1
(PID.TID 0000.0001) 
(PID.TID 0000.0001) gencost( 4) = sst-reynoldsmean
(PID.TID 0000.0001) -------------
(PID.TID 0000.0001)  data file = reynolds_oiv2_r1_mar2018_simasked
(PID.TID 0000.0001)   starts and ends at :
(PID.TID 0000.0001)   19920101  130000  2   6
(PID.TID 0000.0001)   19930630  190000  1   6
(PID.TID 0000.0001)   number of records =    18
(PID.TID 0000.0001)  model file = m_sstmon
(PID.TID 0000.0001)  error file = sigma_half_areascaled.bin
(PID.TID 0000.0001)  preprocess = mean
(PID.TID 0000.0001)  gencost_flag =  1
(PID.TID 0000.0001)  gencost_outputlevel =  1
(PID.TID 0000.0001) 
(PID.TID 0000.0001) gencost( 5) = sst-reynoldsanom
(PID.TID 0000.0001) -------------
(PID.TID 0000.0001)  data file = reynolds_oiv2_r1_mar2018_simasked
(PID.TID 0000.0001)   starts and ends at :
(PID.TID 0000.0001)   19920101  130000  2   6
(PID.TID 0000.0001)   19930630  190000  1   6
(PID.TID 0000.0001)   number of records =    18
(PID.TID 0000.0001)  model file = m_sstmon
(PID.TID 0000.0001)  error file = sigma_half_areascaled.bin
(PID.TID 0000.0001)  preprocess = anom
(PID.TID 0000.0001)  gencost_flag =  1
(PID.TID 0000.0001)  gencost_outputlevel =  1
(PID.TID 0000.0001)  skip barfile write =  T
(PID.TID 0000.0001) 
(PID.TID 0000.0001) gencost( 6) = bpv4-grace
(PID.TID 0000.0001) -------------
(PID.TID 0000.0001)  data file = GRACE_jpl_rl05m_20180122
(PID.TID 0000.0001)   starts and ends at :
(PID.TID 0000.0001)   19920101  130000  2   6
(PID.TID 0000.0001)   19930630  190000  1   6
(PID.TID 0000.0001)   number of records =    18
(PID.TID 0000.0001)  model file = m_bp_nopabarmon
(PID.TID 0000.0001)  error file = GRACE_jpl_rl05m_20180122_err_areascaled
(PID.TID 0000.0001)  gencost_flag = -1
(PID.TID 0000.0001)  gencost_outputlevel =  1
(PID.TID 0000.0001) 
(PID.TID 0000.0001) gencost( 7) = thetamean
(PID.TID 0000.0001) -------------
(PID.TID 0000.0001)  data file = T_monthly_woa09_highlatnearsurface_masked
(PID.TID 0000.0001)   starts and ends at :
(PID.TID 0000.0001)   19920101  130000  2   6
(PID.TID 0000.0001)   19930630  190000  1   6
(PID.TID 0000.0001)   number of records =    18
(PID.TID 0000.0001)  model file = m_thetamon
(PID.TID 0000.0001)  error file = Theta_sigma_smoothed_method_02_masked_merged_capped_areascaled.bin
(PID.TID 0000.0001)  preprocess = mean
(PID.TID 0000.0001)  gencost_flag =  1
(PID.TID 0000.0001)  gencost_outputlevel =  1
(PID.TID 0000.0001)  gencost_pointer3d =  1
(PID.TID 0000.0001) 
(PID.TID 0000.0001) gencost( 8) = saltmean
(PID.TID 0000.0001) -------------
(PID.TID 0000.0001)  data file = S_monthly_woa09_highlatnearsurface_masked
(PID.TID 0000.0001)   starts and ends at :
(PID.TID 0000.0001)   19920101  130000  2   6
(PID.TID 0000.0001)   19930630  190000  1   6
(PID.TID 0000.0001)   number of records =    18
(PID.TID 0000.0001)  model file = m_saltmon
(PID.TID 0000.0001)  error file = Salt_sigma_smoothed_method_02_masked_merged_capped_areascaled.bin
(PID.TID 0000.0001)  preprocess = mean
(PID.TID 0000.0001)  gencost_flag =  1
(PID.TID 0000.0001)  gencost_outputlevel =  1
(PID.TID 0000.0001)  gencost_pointer3d =  2
(PID.TID 0000.0001) 
(PID.TID 0000.0001) gencost(11) = sshv4-mdt
(PID.TID 0000.0001) -------------
(PID.TID 0000.0001)  data file = mdt2_dtu17.bin
(PID.TID 0000.0001)  model file =
(PID.TID 0000.0001)  error file = mdt_dtu13_error_m_areascaled.bin
(PID.TID 0000.0001)  posprocess = smooth
(PID.TID 0000.0001)  gencost_flag = -1
(PID.TID 0000.0001)  gencost_outputlevel =  1
(PID.TID 0000.0001)  skip barfile write =  T
(PID.TID 0000.0001) 
(PID.TID 0000.0001) gencost(12) = sshv4-tp
(PID.TID 0000.0001) -------------
(PID.TID 0000.0001)  data file = RADS_TJ_mar2018
(PID.TID 0000.0001)   starts and ends at :
(PID.TID 0000.0001)   19920101       0  2   6
(PID.TID 0000.0001)   19930630  190000  1   6
(PID.TID 0000.0001)   number of records =   547
(PID.TID 0000.0001)  model file = m_eta_dynday
(PID.TID 0000.0001)  error file = slaerr_gridscale_r5_areascaled.err
(PID.TID 0000.0001)  gencost_flag = -1
(PID.TID 0000.0001)  gencost_outputlevel =  1
(PID.TID 0000.0001) 
(PID.TID 0000.0001) gencost(13) = sshv4-ers
(PID.TID 0000.0001) -------------
(PID.TID 0000.0001)  data file = RADS_ERS_ENV_SA_mar2018
(PID.TID 0000.0001)   starts and ends at :
(PID.TID 0000.0001)   19920101       0  2   6
(PID.TID 0000.0001)   19930630  190000  1   6
(PID.TID 0000.0001)   number of records =   547
(PID.TID 0000.0001)  model file =
(PID.TID 0000.0001)  error file = slaerr_gridscale_r5_areascaled.err
(PID.TID 0000.0001)  gencost_flag = -1
(PID.TID 0000.0001)  gencost_outputlevel =  1
(PID.TID 0000.0001)  skip barfile write =  T
(PID.TID 0000.0001) 
(PID.TID 0000.0001) gencost(14) = sshv4-gfo
(PID.TID 0000.0001) -------------
(PID.TID 0000.0001)  data file = RADS_GFO_C2_mar2018
(PID.TID 0000.0001)   starts and ends at :
(PID.TID 0000.0001)   19920101       0  2   6
(PID.TID 0000.0001)   19930630  190000  1   6
(PID.TID 0000.0001)   number of records =   547
(PID.TID 0000.0001)  model file =
(PID.TID 0000.0001)  error file = slaerr_gridscale_r5_areascaled.err
(PID.TID 0000.0001)  gencost_flag = -1
(PID.TID 0000.0001)  gencost_outputlevel =  1
(PID.TID 0000.0001)  skip barfile write =  T
(PID.TID 0000.0001) 
(PID.TID 0000.0001) gencost(15) = sshv4-lsc
(PID.TID 0000.0001) -------------
(PID.TID 0000.0001)  model file =
(PID.TID 0000.0001)  error file = slaerr_largescale_r5_areascaled.err
(PID.TID 0000.0001)  posprocess = smooth
(PID.TID 0000.0001)  gencost_flag = -1
(PID.TID 0000.0001)  gencost_outputlevel =  1
(PID.TID 0000.0001)  skip barfile write =  T
(PID.TID 0000.0001) 
(PID.TID 0000.0001) gencost(17) = thetaanom
(PID.TID 0000.0001) -------------
(PID.TID 0000.0001)  data file = T_monthly_woa09_highlatnearsurface_masked
(PID.TID 0000.0001)   starts and ends at :
(PID.TID 0000.0001)   19920101  130000  2   6
(PID.TID 0000.0001)   19930630  190000  1   6
(PID.TID 0000.0001)   number of records =    18
(PID.TID 0000.0001)  model file = m_thetamon
(PID.TID 0000.0001)  error file = Theta_sigma_smoothed_method_02_masked_merged_capped_areascaled.bin
(PID.TID 0000.0001)  preprocess = clim
(PID.TID 0000.0001)  preprocess = anom
(PID.TID 0000.0001)  gencost_flag =  1
(PID.TID 0000.0001)  gencost_outputlevel =  1
(PID.TID 0000.0001)  gencost_pointer3d =  3
(PID.TID 0000.0001)  skip barfile write =  T
(PID.TID 0000.0001) 
(PID.TID 0000.0001) gencost(18) = saltanom
(PID.TID 0000.0001) -------------
(PID.TID 0000.0001)  data file = S_monthly_woa09_highlatnearsurface_masked
(PID.TID 0000.0001)   starts and ends at :
(PID.TID 0000.0001)   19920101  130000  2   6
(PID.TID 0000.0001)   19930630  190000  1   6
(PID.TID 0000.0001)   number of records =    18
(PID.TID 0000.0001)  model file = m_saltmon
(PID.TID 0000.0001)  error file = Salt_sigma_smoothed_method_02_masked_merged_capped_areascaled.bin
(PID.TID 0000.0001)  preprocess = clim
(PID.TID 0000.0001)  preprocess = anom
(PID.TID 0000.0001)  gencost_flag =  1
(PID.TID 0000.0001)  gencost_outputlevel =  1
(PID.TID 0000.0001)  gencost_pointer3d =  4
(PID.TID 0000.0001)  skip barfile write =  T
(PID.TID 0000.0001) 
(PID.TID 0000.0001) gencost(19) = sss_AQanom
(PID.TID 0000.0001) -------------
(PID.TID 0000.0001)  data file = monthlyL3v5_20180129
(PID.TID 0000.0001)   starts and ends at :
(PID.TID 0000.0001)   19920101  130000  2   6
(PID.TID 0000.0001)   19930630  190000  1   6
(PID.TID 0000.0001)   number of records =    18
(PID.TID 0000.0001)  model file = m_sssmon
(PID.TID 0000.0001)  error file = errStdAQ_v3_llc_090_floored_areascaled
(PID.TID 0000.0001)  preprocess = anom
(PID.TID 0000.0001)  gencost_flag =  1
(PID.TID 0000.0001)  gencost_outputlevel =  1
(PID.TID 0000.0001) 
(PID.TID 0000.0001) gencost(20) = sss_AQmean
(PID.TID 0000.0001) -------------
(PID.TID 0000.0001)  data file = monthlyL3v5_20180129
(PID.TID 0000.0001)   starts and ends at :
(PID.TID 0000.0001)   19920101  130000  2   6
(PID.TID 0000.0001)   19930630  190000  1   6
(PID.TID 0000.0001)   number of records =    18
(PID.TID 0000.0001)  model file = m_sssmon
(PID.TID 0000.0001)  error file = biasStdAQ_v3_llc_090_floored_areascaled
(PID.TID 0000.0001)  preprocess = mean
(PID.TID 0000.0001)  gencost_flag =  1
(PID.TID 0000.0001)  gencost_outputlevel =  1
(PID.TID 0000.0001)  skip barfile write =  T
(PID.TID 0000.0001) 
(PID.TID 0000.0001) gencost(21) = gmbp
(PID.TID 0000.0001) -------------
(PID.TID 0000.0001)  data file = GRACE_jpl_rl05m_20180122_SpatialMean.asc
(PID.TID 0000.0001)   starts and ends at :
(PID.TID 0000.0001)   19920101  130000  2   6
(PID.TID 0000.0001)   19930630  190000  1   6
(PID.TID 0000.0001)   number of records =    18
(PID.TID 0000.0001)  model file = m_bp_nopabarmon
(PID.TID 0000.0001)  error file =
(PID.TID 0000.0001)  gencost_flag =  1
(PID.TID 0000.0001)  gencost_outputlevel =  1
(PID.TID 0000.0001)  skip barfile write =  T
(PID.TID 0000.0001) 
(PID.TID 0000.0001) gencost(22) = gmsl
(PID.TID 0000.0001) -------------
(PID.TID 0000.0001)  data file = 20180228_ensemble_average_gmsl_ref.asc
(PID.TID 0000.0001)   starts and ends at :
(PID.TID 0000.0001)   19920101  130000  2   6
(PID.TID 0000.0001)   19930630  190000  1   6
(PID.TID 0000.0001)   number of records =    18
(PID.TID 0000.0001)  model file = m_eta_dynmon
(PID.TID 0000.0001)  error file =
(PID.TID 0000.0001)  gencost_flag =  1
(PID.TID 0000.0001)  gencost_outputlevel =  1
(PID.TID 0000.0001) 
(PID.TID 0000.0001) gencost(27) = RADS_TJ_mar2018
(PID.TID 0000.0001) -------------
(PID.TID 0000.0001)  data file = RADS_TJ_mar2018
(PID.TID 0000.0001)   starts and ends at :
(PID.TID 0000.0001)   19920101       0  2   6
(PID.TID 0000.0001)   19930630  190000  1   6
(PID.TID 0000.0001)   number of records =   547
(PID.TID 0000.0001)  model file = m_etaday
(PID.TID 0000.0001)  error file = slaerr_gridscale_r5_areascaled.err
(PID.TID 0000.0001)  gencost_flag =  1
(PID.TID 0000.0001)  gencost_outputlevel =  1
(PID.TID 0000.0001) 
(PID.TID 0000.0001) gencost(28) = 20180228_ensemble_average_gmsl_ref.asc
(PID.TID 0000.0001) -------------
(PID.TID 0000.0001)  data file = 20180228_ensemble_average_gmsl_ref.asc
(PID.TID 0000.0001)   starts and ends at :
(PID.TID 0000.0001)   19920101  130000  2   6
(PID.TID 0000.0001)   19930630  190000  1   6
(PID.TID 0000.0001)   number of records =    18
(PID.TID 0000.0001)  model file = m_etamon
(PID.TID 0000.0001)  error file =
(PID.TID 0000.0001)  gencost_flag =  1
(PID.TID 0000.0001)  gencost_outputlevel =  1
(PID.TID 0000.0001) 
(PID.TID 0000.0001) gencost(29) = GRACE_jpl_rl05m_20180122_SpatialMean.asc
(PID.TID 0000.0001) -------------
(PID.TID 0000.0001)  data file = GRACE_jpl_rl05m_20180122_SpatialMean.asc
(PID.TID 0000.0001)   starts and ends at :
(PID.TID 0000.0001)   19920101  130000  2   6
(PID.TID 0000.0001)   19930630  190000  1   6
(PID.TID 0000.0001)   number of records =    18
(PID.TID 0000.0001)  model file = m_bpmon
(PID.TID 0000.0001)  error file =
(PID.TID 0000.0001)  gencost_flag =  1
(PID.TID 0000.0001)  gencost_outputlevel =  1
(PID.TID 0000.0001) 
(PID.TID 0000.0001) gencost(30) = GRACE_fake_daily
(PID.TID 0000.0001) -------------
(PID.TID 0000.0001)  data file = GRACE_fake_daily
(PID.TID 0000.0001)   starts and ends at :
(PID.TID 0000.0001)   19920101  130000  2   6
(PID.TID 0000.0001)   19930630  190000  1   6
(PID.TID 0000.0001)   number of records =   547
(PID.TID 0000.0001)  model file = m_bpday
(PID.TID 0000.0001)  error file = GRACE_jpl_rl05m_20180122_err_areascaled
(PID.TID 0000.0001)  gencost_flag =  1
(PID.TID 0000.0001)  gencost_outputlevel =  1
(PID.TID 0000.0001) 
(PID.TID 0000.0001) gencost(31) = GRACE_fake_daily
(PID.TID 0000.0001) -------------
(PID.TID 0000.0001)  data file = GRACE_fake_daily
(PID.TID 0000.0001)   starts and ends at :
(PID.TID 0000.0001)   19920101  130000  2   6
(PID.TID 0000.0001)   19930630  190000  1   6
(PID.TID 0000.0001)   number of records =   547
(PID.TID 0000.0001)  model file = m_bp_nopabarday
(PID.TID 0000.0001)  error file = GRACE_jpl_rl05m_20180122_err_areascaled
(PID.TID 0000.0001)  gencost_flag =  1
(PID.TID 0000.0001)  gencost_outputlevel =  1
(PID.TID 0000.0001) 
(PID.TID 0000.0001) 
(PID.TID 0000.0001) 
(PID.TID 0000.0001) // =======================================================
(PID.TID 0000.0001) // ECCO configuration  >>> END <<<
(PID.TID 0000.0001) // =======================================================
(PID.TID 0000.0001) 
(PID.TID 0000.0001) 
(PID.TID 0000.0001) // =======================================================
(PID.TID 0000.0001) // insitu profiles model sampling >>> START <<<
(PID.TID 0000.0001) // =======================================================
(PID.TID 0000.0001) 
(PID.TID 0000.0001) 
(PID.TID 0000.0001)   profilesDir profiles/
(PID.TID 0000.0001)   profilesDoGenGrid      T
(PID.TID 0000.0001)   profilesDoNcOutput     F
(PID.TID 0000.0001) 
(PID.TID 0000.0001) 
(PID.TID 0000.0001) profiles file #  1 is ARGO_20190131_95to13
(PID.TID 0000.0001)   current tile is bi,bj                      =   1,   1
(PID.TID 0000.0001)   # of depth levels in file                  =       55
(PID.TID 0000.0001)   # of profiles in file                      =  1069993
(PID.TID 0000.0001)   # of profiles with erroneous HHMMSS values =        0
(PID.TID 0000.0001)   # of profiles within tile and time period  =        0
(PID.TID 0000.0001)   variable #  1 is            prof_T and theta
(PID.TID 0000.0001)   variable #  2 is            prof_S and salt
(PID.TID 0000.0001) 
(PID.TID 0000.0001) profiles file #  2 is ARGO_20190131_14to17
(PID.TID 0000.0001)   current tile is bi,bj                      =   1,   1
(PID.TID 0000.0001)   # of depth levels in file                  =       55
(PID.TID 0000.0001)   # of profiles in file                      =   616384
(PID.TID 0000.0001)   # of profiles with erroneous HHMMSS values =        0
(PID.TID 0000.0001)   # of profiles within tile and time period  =        0
(PID.TID 0000.0001)   variable #  1 is            prof_T and theta
(PID.TID 0000.0001)   variable #  2 is            prof_S and salt
(PID.TID 0000.0001) 
(PID.TID 0000.0001) profiles file #  3 is APB_20190131_97to04
(PID.TID 0000.0001)   current tile is bi,bj                      =   1,   1
(PID.TID 0000.0001)   # of depth levels in file                  =       55
(PID.TID 0000.0001)   # of profiles in file                      =    28422
(PID.TID 0000.0001)   # of profiles with erroneous HHMMSS values =        0
(PID.TID 0000.0001)   # of profiles within tile and time period  =        0
(PID.TID 0000.0001)   variable #  1 is            prof_T and theta
(PID.TID 0000.0001)   variable #  2 is            prof_S and salt
(PID.TID 0000.0001) 
(PID.TID 0000.0001) profiles file #  4 is CTD_20190131_92to05
(PID.TID 0000.0001)   current tile is bi,bj                      =   1,   1
(PID.TID 0000.0001)   # of depth levels in file                  =      102
(PID.TID 0000.0001)   # of profiles in file                      =   321615
(PID.TID 0000.0001)   # of profiles with erroneous HHMMSS values =        0
(PID.TID 0000.0001)   # of profiles within tile and time period  =        0
(PID.TID 0000.0001)   variable #  1 is            prof_T and theta
(PID.TID 0000.0001)   variable #  2 is            prof_S and salt
(PID.TID 0000.0001) 
(PID.TID 0000.0001) profiles file #  5 is GLD_20190131_02to11
(PID.TID 0000.0001)   current tile is bi,bj                      =   1,   1
(PID.TID 0000.0001)   # of depth levels in file                  =       98
(PID.TID 0000.0001)   # of profiles in file                      =    18190
(PID.TID 0000.0001)   # of profiles with erroneous HHMMSS values =        0
(PID.TID 0000.0001)   # of profiles within tile and time period  =        0
(PID.TID 0000.0001)   variable #  1 is            prof_T and theta
(PID.TID 0000.0001)   variable #  2 is            prof_S and salt
(PID.TID 0000.0001) 
(PID.TID 0000.0001) profiles file #  6 is GLD_20190131_12to13
(PID.TID 0000.0001)   current tile is bi,bj                      =   1,   1
(PID.TID 0000.0001)   # of depth levels in file                  =       98
(PID.TID 0000.0001)   # of profiles in file                      =     5507
(PID.TID 0000.0001)   # of profiles with erroneous HHMMSS values =        0
(PID.TID 0000.0001)   # of profiles within tile and time period  =        0
(PID.TID 0000.0001)   variable #  1 is            prof_T and theta
(PID.TID 0000.0001)   variable #  2 is            prof_S and salt
(PID.TID 0000.0001) 
(PID.TID 0000.0001) profiles file #  7 is GLD_20190131_14to15
(PID.TID 0000.0001)   current tile is bi,bj                      =   1,   1
(PID.TID 0000.0001)   # of depth levels in file                  =       98
(PID.TID 0000.0001)   # of profiles in file                      =    14876
(PID.TID 0000.0001)   # of profiles with erroneous HHMMSS values =        0
(PID.TID 0000.0001)   # of profiles within tile and time period  =        0
(PID.TID 0000.0001)   variable #  1 is            prof_T and theta
(PID.TID 0000.0001)   variable #  2 is            prof_S and salt
(PID.TID 0000.0001) 
(PID.TID 0000.0001) profiles file #  8 is MRB_20190131_92to03
(PID.TID 0000.0001)   current tile is bi,bj                      =   1,   1
(PID.TID 0000.0001)   # of depth levels in file                  =       42
(PID.TID 0000.0001)   # of profiles in file                      =   118013
(PID.TID 0000.0001)   # of profiles with erroneous HHMMSS values =        0
(PID.TID 0000.0001)   # of profiles within tile and time period  =        0
(PID.TID 0000.0001)   variable #  1 is            prof_T and theta
(PID.TID 0000.0001)   variable #  2 is            prof_S and salt
(PID.TID 0000.0001) 
(PID.TID 0000.0001) profiles file #  9 is MRB_20190131_04to04
(PID.TID 0000.0001)   current tile is bi,bj                      =   1,   1
(PID.TID 0000.0001)   # of depth levels in file                  =       42
(PID.TID 0000.0001)   # of profiles in file                      =    20634
(PID.TID 0000.0001)   # of profiles with erroneous HHMMSS values =        0
(PID.TID 0000.0001)   # of profiles within tile and time period  =        0
(PID.TID 0000.0001)   variable #  1 is            prof_T and theta
(PID.TID 0000.0001)   variable #  2 is            prof_S and salt
(PID.TID 0000.0001) 
(PID.TID 0000.0001) profiles file # 10 is XBT_20190131_92to05
(PID.TID 0000.0001)   current tile is bi,bj                      =   1,   1
(PID.TID 0000.0001)   # of depth levels in file                  =       77
(PID.TID 0000.0001)   # of profiles in file                      =   631537
(PID.TID 0000.0001)   # of profiles with erroneous HHMMSS values =        0
(PID.TID 0000.0001)   # of profiles within tile and time period  =        0
(PID.TID 0000.0001)   variable #  1 is            prof_T and theta
(PID.TID 0000.0001)   variable #  2 is            prof_S and salt
(PID.TID 0000.0001) 
(PID.TID 0000.0001) profiles file # 11 is XBT_20190131_06to17
(PID.TID 0000.0001)   current tile is bi,bj                      =   1,   1
(PID.TID 0000.0001)   # of depth levels in file                  =       77
(PID.TID 0000.0001)   # of profiles in file                      =   219966
(PID.TID 0000.0001)   # of profiles with erroneous HHMMSS values =        0
(PID.TID 0000.0001)   # of profiles within tile and time period  =        0
(PID.TID 0000.0001)   variable #  1 is            prof_T and theta
(PID.TID 0000.0001)   variable #  2 is            prof_S and salt
(PID.TID 0000.0001) 
(PID.TID 0000.0001) profiles file # 12 is ITP_20190131_04to13
(PID.TID 0000.0001)   current tile is bi,bj                      =   1,   1
(PID.TID 0000.0001)   # of depth levels in file                  =       61
(PID.TID 0000.0001)   # of profiles in file                      =    15843
(PID.TID 0000.0001)   # of profiles with erroneous HHMMSS values =        0
(PID.TID 0000.0001)   # of profiles within tile and time period  =        0
(PID.TID 0000.0001)   variable #  1 is            prof_T and theta
(PID.TID 0000.0001)   variable #  2 is            prof_S and salt
(PID.TID 0000.0001) 
(PID.TID 0000.0001) profiles file # 18 is GLD_20190131_16to17
(PID.TID 0000.0001)   current tile is bi,bj                      =   1,   1
(PID.TID 0000.0001)   # of depth levels in file                  =       98
(PID.TID 0000.0001)   # of profiles in file                      =    13165
(PID.TID 0000.0001)   # of profiles with erroneous HHMMSS values =        0
(PID.TID 0000.0001)   # of profiles within tile and time period  =        0
(PID.TID 0000.0001)   variable #  1 is            prof_T and theta
(PID.TID 0000.0001)   variable #  2 is            prof_S and salt
(PID.TID 0000.0001) 
(PID.TID 0000.0001) profiles file # 19 is GOSHIP_20190131_92to17
(PID.TID 0000.0001)   current tile is bi,bj                      =   1,   1
(PID.TID 0000.0001)   # of depth levels in file                  =       94
(PID.TID 0000.0001)   # of profiles in file                      =    26976
(PID.TID 0000.0001)   # of profiles with erroneous HHMMSS values =        0
(PID.TID 0000.0001)   # of profiles within tile and time period  =        0
(PID.TID 0000.0001)   variable #  1 is            prof_T and theta
(PID.TID 0000.0001)   variable #  2 is            prof_S and salt
(PID.TID 0000.0001) 
(PID.TID 0000.0001) profiles file # 20 is MRB_20190131_05to05
(PID.TID 0000.0001)   current tile is bi,bj                      =   1,   1
(PID.TID 0000.0001)   # of depth levels in file                  =       42
(PID.TID 0000.0001)   # of profiles in file                      =    22143
(PID.TID 0000.0001)   # of profiles with erroneous HHMMSS values =        0
(PID.TID 0000.0001)   # of profiles within tile and time period  =        0
(PID.TID 0000.0001)   variable #  1 is            prof_T and theta
(PID.TID 0000.0001)   variable #  2 is            prof_S and salt
(PID.TID 0000.0001) 
(PID.TID 0000.0001) profiles file # 21 is MRB_20190131_06to17
(PID.TID 0000.0001)   current tile is bi,bj                      =   1,   1
(PID.TID 0000.0001)   # of depth levels in file                  =       42
(PID.TID 0000.0001)   # of profiles in file                      =   332880
(PID.TID 0000.0001)   # of profiles with erroneous HHMMSS values =        0
(PID.TID 0000.0001)   # of profiles within tile and time period  =        0
(PID.TID 0000.0001)   variable #  1 is            prof_T and theta
(PID.TID 0000.0001)   variable #  2 is            prof_S and salt
(PID.TID 0000.0001) 
(PID.TID 0000.0001) profiles file # 22 is CTD_20190131_06to17
(PID.TID 0000.0001)   current tile is bi,bj                      =   1,   1
(PID.TID 0000.0001)   # of depth levels in file                  =      102
(PID.TID 0000.0001)   # of profiles in file                      =   239089
(PID.TID 0000.0001)   # of profiles with erroneous HHMMSS values =        0
(PID.TID 0000.0001)   # of profiles within tile and time period  =        0
(PID.TID 0000.0001)   variable #  1 is            prof_T and theta
(PID.TID 0000.0001)   variable #  2 is            prof_S and salt
(PID.TID 0000.0001) 
(PID.TID 0000.0001) profiles file # 23 is ITP_20190131_14to17
(PID.TID 0000.0001)   current tile is bi,bj                      =   1,   1
(PID.TID 0000.0001)   # of depth levels in file                  =       61
(PID.TID 0000.0001)   # of profiles in file                      =     6421
(PID.TID 0000.0001)   # of profiles with erroneous HHMMSS values =        0
(PID.TID 0000.0001)   # of profiles within tile and time period  =        0
(PID.TID 0000.0001)   variable #  1 is            prof_T and theta
(PID.TID 0000.0001)   variable #  2 is            prof_S and salt
(PID.TID 0000.0001) 
(PID.TID 0000.0001) profiles file # 24 is APB_20190131_05to05
(PID.TID 0000.0001)   current tile is bi,bj                      =   1,   1
(PID.TID 0000.0001)   # of depth levels in file                  =       55
(PID.TID 0000.0001)   # of profiles in file                      =    23163
(PID.TID 0000.0001)   # of profiles with erroneous HHMMSS values =        0
(PID.TID 0000.0001)   # of profiles within tile and time period  =        0
(PID.TID 0000.0001)   variable #  1 is            prof_T and theta
(PID.TID 0000.0001)   variable #  2 is            prof_S and salt
(PID.TID 0000.0001) 
(PID.TID 0000.0001) profiles file # 25 is APB_20190131_06to06
(PID.TID 0000.0001)   current tile is bi,bj                      =   1,   1
(PID.TID 0000.0001)   # of depth levels in file                  =       55
(PID.TID 0000.0001)   # of profiles in file                      =     8594
(PID.TID 0000.0001)   # of profiles with erroneous HHMMSS values =        0
(PID.TID 0000.0001)   # of profiles within tile and time period  =        0
(PID.TID 0000.0001)   variable #  1 is            prof_T and theta
(PID.TID 0000.0001)   variable #  2 is            prof_S and salt
(PID.TID 0000.0001) 
(PID.TID 0000.0001) profiles file # 26 is APB_20190131_07to07
(PID.TID 0000.0001)   current tile is bi,bj                      =   1,   1
(PID.TID 0000.0001)   # of depth levels in file                  =       55
(PID.TID 0000.0001)   # of profiles in file                      =    24983
(PID.TID 0000.0001)   # of profiles with erroneous HHMMSS values =        0
(PID.TID 0000.0001)   # of profiles within tile and time period  =        0
(PID.TID 0000.0001)   variable #  1 is            prof_T and theta
(PID.TID 0000.0001)   variable #  2 is            prof_S and salt
(PID.TID 0000.0001) 
(PID.TID 0000.0001) profiles file # 27 is APB_20190131_08to09
(PID.TID 0000.0001)   current tile is bi,bj                      =   1,   1
(PID.TID 0000.0001)   # of depth levels in file                  =       55
(PID.TID 0000.0001)   # of profiles in file                      =    81905
(PID.TID 0000.0001)   # of profiles with erroneous HHMMSS values =        0
(PID.TID 0000.0001)   # of profiles within tile and time period  =        0
(PID.TID 0000.0001)   variable #  1 is            prof_T and theta
(PID.TID 0000.0001)   variable #  2 is            prof_S and salt
(PID.TID 0000.0001) 
(PID.TID 0000.0001) profiles file # 28 is APB_20190131_10to17
(PID.TID 0000.0001)   current tile is bi,bj                      =   1,   1
(PID.TID 0000.0001)   # of depth levels in file                  =       55
(PID.TID 0000.0001)   # of profiles in file                      =   202245
(PID.TID 0000.0001)   # of profiles with erroneous HHMMSS values =        0
(PID.TID 0000.0001)   # of profiles within tile and time period  =        0
(PID.TID 0000.0001)   variable #  1 is            prof_T and theta
(PID.TID 0000.0001)   variable #  2 is            prof_S and salt
(PID.TID 0000.0001) 
(PID.TID 0000.0001) profiles file # 29 is CCHDO_20190131_92to17
(PID.TID 0000.0001)   current tile is bi,bj                      =   1,   1
(PID.TID 0000.0001)   # of depth levels in file                  =       94
(PID.TID 0000.0001)   # of profiles in file                      =    26976
(PID.TID 0000.0001)   # of profiles with erroneous HHMMSS values =        0
(PID.TID 0000.0001)   # of profiles within tile and time period  =        0
(PID.TID 0000.0001)   variable #  1 is            prof_T and theta
(PID.TID 0000.0001)   variable #  2 is            prof_S and salt
(PID.TID 0000.0001) NLEVELCOMB =    139
(PID.TID 0000.0001) 
(PID.TID 0000.0001) // =======================================================
(PID.TID 0000.0001) // insitu profiles model sampling >>> END <<<
(PID.TID 0000.0001) // =======================================================
(PID.TID 0000.0001) 
(PID.TID 0000.0001) // =======================================================
(PID.TID 0000.0001) // Seaice configuration (SEAICE_PARM01) >>> START <<<
(PID.TID 0000.0001) // =======================================================
(PID.TID 0000.0001) 
(PID.TID 0000.0001)    Seaice time stepping configuration   > START <
(PID.TID 0000.0001)    ----------------------------------------------
(PID.TID 0000.0001) SEAICE_deltaTtherm= /* thermodynamic timestep */
(PID.TID 0000.0001)                 3.600000000000000E+03
(PID.TID 0000.0001)     ;
(PID.TID 0000.0001) SEAICE_deltaTdyn  = /* dynamic timestep */
(PID.TID 0000.0001)                 3.600000000000000E+03
(PID.TID 0000.0001)     ;
(PID.TID 0000.0001) SEAICE_deltaTevp  = /* EVP timestep */
(PID.TID 0000.0001)                 1.234567000000000E+05
(PID.TID 0000.0001)     ;
(PID.TID 0000.0001) SEAICEuseBDF2  = /* use backw. differencing for mom. eq. */
(PID.TID 0000.0001)                   F
(PID.TID 0000.0001)     ;
(PID.TID 0000.0001) SEAICErestoreUnderIce  = /* restore T and S under ice */
(PID.TID 0000.0001)                   T
(PID.TID 0000.0001)     ;
(PID.TID 0000.0001) 
(PID.TID 0000.0001)    Seaice dynamics configuration   > START <
(PID.TID 0000.0001)    ------------------------------------------
(PID.TID 0000.0001) SEAICEuseDYNAMICS = /* use dynamics */
(PID.TID 0000.0001)                   T
(PID.TID 0000.0001)     ;
(PID.TID 0000.0001) model grid type   = /* type of sea ice model grid */
(PID.TID 0000.0001)               'C-GRID'
(PID.TID 0000.0001)     ;
(PID.TID 0000.0001) SEAICEuseStrImpCpl = /* use strongly implicit coupling */
(PID.TID 0000.0001)                   F
(PID.TID 0000.0001)     ;
(PID.TID 0000.0001) SEAICEusePicardAsPrecon = /* Picard as preconditioner */
(PID.TID 0000.0001)                   F
(PID.TID 0000.0001)     ;
(PID.TID 0000.0001) SEAICEuseLSR      = /* use default Picard-LSR solver */
(PID.TID 0000.0001)                   T
(PID.TID 0000.0001)     ;
(PID.TID 0000.0001) SEAICEuseKrylov   = /* use Picard-Krylov solver */
(PID.TID 0000.0001)                   F
(PID.TID 0000.0001)     ;
(PID.TID 0000.0001) SEAICEuseEVP      = /* use EVP solver rather than LSR */
(PID.TID 0000.0001)                   F
(PID.TID 0000.0001)     ;
(PID.TID 0000.0001) SEAICEuseJFNK     = /* use JFNK solver */
(PID.TID 0000.0001)                   F
(PID.TID 0000.0001)     ;
(PID.TID 0000.0001) SEAICEuseFREEDRIFT = /* use free drift solution */
(PID.TID 0000.0001)                   F
(PID.TID 0000.0001)     ;
(PID.TID 0000.0001) OCEAN_drag        = /* air-ocean drag coefficient */
(PID.TID 0000.0001)                 1.000000000000000E-03
(PID.TID 0000.0001)     ;
(PID.TID 0000.0001) SEAICE_drag       = /* air-ice drag coefficient */
(PID.TID 0000.0001)                 1.000000000000000E-03
(PID.TID 0000.0001)     ;
(PID.TID 0000.0001) SEAICE_drag_south      = /* Southern Ocean SEAICE_drag */
(PID.TID 0000.0001)                 1.000000000000000E-03
(PID.TID 0000.0001)     ;
(PID.TID 0000.0001) SEAICE_waterDrag  = /* water-ice drag * density */
(PID.TID 0000.0001)                 5.500000000000000E+00
(PID.TID 0000.0001)     ;
(PID.TID 0000.0001) SEAICE_waterDrag_south = /* Southern Ocean waterDrag */
(PID.TID 0000.0001)                 5.500000000000000E+00
(PID.TID 0000.0001)     ;
(PID.TID 0000.0001) SEAICEuseTilt     = /* include surface tilt in dyna. */
(PID.TID 0000.0001)                   F
(PID.TID 0000.0001)     ;
(PID.TID 0000.0001) SEAICEuseTEM      = /* use truncated ellipse rheology */
(PID.TID 0000.0001)                   F
(PID.TID 0000.0001)     ;
(PID.TID 0000.0001) SEAICE_strength   = /* sea-ice strength Pstar */
(PID.TID 0000.0001)                 2.250000000000000E+04
(PID.TID 0000.0001)     ;
(PID.TID 0000.0001) SEAICE_cStar      = /* sea-ice strength parameter cStar */
(PID.TID 0000.0001)                 2.000000000000000E+01
(PID.TID 0000.0001)     ;
(PID.TID 0000.0001) SEAICEpressReplFac= /* press. replacement method factor */
(PID.TID 0000.0001)                 1.000000000000000E+00
(PID.TID 0000.0001)     ;
(PID.TID 0000.0001) SEAICE_tensilFac  = /* sea-ice tensile strength factor */
(PID.TID 0000.0001)                 0.000000000000000E+00
(PID.TID 0000.0001)     ;
(PID.TID 0000.0001) SEAICE_tensilDepth= /* crit. depth for tensile strength */
(PID.TID 0000.0001)                 0.000000000000000E+00
(PID.TID 0000.0001)     ;
(PID.TID 0000.0001) SEAICEpresH0   = /* sea-ice strength Heff threshold */
(PID.TID 0000.0001)                 2.000000000000000E+00
(PID.TID 0000.0001)     ;
(PID.TID 0000.0001) SEAICEpresPow0 = /* exponent for Heff<SEAICEpresH0 */
(PID.TID 0000.0001)                       1
(PID.TID 0000.0001)     ;
(PID.TID 0000.0001) SEAICEpresPow1 = /* exponent for Heff>SEAICEpresH0 */
(PID.TID 0000.0001)                       1
(PID.TID 0000.0001)     ;
(PID.TID 0000.0001) SEAICEetaZmethod = /* method computing eta at Z-point */
(PID.TID 0000.0001)                       0
(PID.TID 0000.0001)     ;
(PID.TID 0000.0001) SEAICE_zetaMin    = /* lower bound for viscosity */
(PID.TID 0000.0001)                 0.000000000000000E+00
(PID.TID 0000.0001)     ;
(PID.TID 0000.0001) SEAICE_eccen    = /* elliptical yield curve eccent */
(PID.TID 0000.0001)                 2.000000000000000E+00
(PID.TID 0000.0001)     ;
(PID.TID 0000.0001) SEAICEstressFactor    = /* wind stress scaling factor */
(PID.TID 0000.0001)                 1.000000000000000E+00
(PID.TID 0000.0001)     ;
(PID.TID 0000.0001) SEAICE_airTurnAngle    = /* air-ice turning angle */
(PID.TID 0000.0001)                 0.000000000000000E+00
(PID.TID 0000.0001)     ;
(PID.TID 0000.0001) SEAICE_waterTurnAngle  = /* ice-water turning angle */
(PID.TID 0000.0001)                 0.000000000000000E+00
(PID.TID 0000.0001)     ;
(PID.TID 0000.0001) SEAICEuseMetricTerms = /* use metric terms */
(PID.TID 0000.0001)                   T
(PID.TID 0000.0001)     ;
(PID.TID 0000.0001) SEAICE_no_slip    = /* no slip boundary conditions */
(PID.TID 0000.0001)                   T
(PID.TID 0000.0001)     ;
(PID.TID 0000.0001) SEAICE_clipVeloctities = /* impose max. vels. */
(PID.TID 0000.0001)                   T
(PID.TID 0000.0001)     ;
(PID.TID 0000.0001) useHB87stressCoupling  = /* altern. ice-ocean stress */
(PID.TID 0000.0001)                   F
(PID.TID 0000.0001)     ;
(PID.TID 0000.0001) SEAICEscaleSurfStress  = /* scale atm. and ocean-surface stress with AREA */
(PID.TID 0000.0001)                   F
(PID.TID 0000.0001)     ;
(PID.TID 0000.0001) SEAICE_maskRHS    = /* mask RHS of solver */
(PID.TID 0000.0001)                   F
(PID.TID 0000.0001)     ;
(PID.TID 0000.0001) SEAICEaddSnowMass = /* add snow mass to seaiceMassC/U/V */
(PID.TID 0000.0001)                   F
(PID.TID 0000.0001)     ;
(PID.TID 0000.0001) LSR_mixIniGuess = /* mix free-drift sol. into LSR initial Guess */
(PID.TID 0000.0001)                       0
(PID.TID 0000.0001)     ;
(PID.TID 0000.0001) SEAICE_LSRrelaxU  = /* LSR solver: relaxation parameter */
(PID.TID 0000.0001)                 9.500000000000000E-01
(PID.TID 0000.0001)     ;
(PID.TID 0000.0001) SEAICE_LSRrelaxV  = /* LSR solver: relaxation parameter */
(PID.TID 0000.0001)                 9.500000000000000E-01
(PID.TID 0000.0001)     ;
(PID.TID 0000.0001) LSR_ERROR         = /* sets accuracy of LSR solver */
(PID.TID 0000.0001)                 2.000000000000000E-04
(PID.TID 0000.0001)     ;
(PID.TID 0000.0001) SOLV_NCHECK       = /* test interval for LSR solver */
(PID.TID 0000.0001)                       2
(PID.TID 0000.0001)     ;
(PID.TID 0000.0001) SEAICEuseMultiTileSolver = /* use full domain tri-diag solver */
(PID.TID 0000.0001)                   F
(PID.TID 0000.0001)     ;
(PID.TID 0000.0001) SEAICE_OLx = /* overlap for LSR/preconditioner */
(PID.TID 0000.0001)                       0
(PID.TID 0000.0001)     ;
(PID.TID 0000.0001) SEAICE_OLy = /* overlap for LSR/preconditioner */
(PID.TID 0000.0001)                       0
(PID.TID 0000.0001)     ;
(PID.TID 0000.0001) SEAICEnonLinIterMax = /* max. number of nonlinear solver steps */
(PID.TID 0000.0001)                       2
(PID.TID 0000.0001)     ;
(PID.TID 0000.0001) SEAICElinearIterMax = /* max. number of linear solver steps */
(PID.TID 0000.0001)                    1500
(PID.TID 0000.0001)     ;
(PID.TID 0000.0001) SEAICEnonLinTol     = /* non-linear solver tolerance */
(PID.TID 0000.0001)                 0.000000000000000E+00
(PID.TID 0000.0001)     ;
(PID.TID 0000.0001) 
(PID.TID 0000.0001)    Seaice advection diffusion config,   > START <
(PID.TID 0000.0001)    -----------------------------------------------
(PID.TID 0000.0001) SEAICEadvHeff = /* advect effective ice thickness */
(PID.TID 0000.0001)                   T
(PID.TID 0000.0001)     ;
(PID.TID 0000.0001) SEAICEadvArea = /* advect fractional ice area */
(PID.TID 0000.0001)                   T
(PID.TID 0000.0001)     ;
(PID.TID 0000.0001) SEAICEadvSnow = /* advect snow layer together with ice */
(PID.TID 0000.0001)                   T
(PID.TID 0000.0001)     ;
(PID.TID 0000.0001) SEAICEadvScheme   = /* advection scheme for ice */
(PID.TID 0000.0001)                      33
(PID.TID 0000.0001)     ;
(PID.TID 0000.0001) SEAICEadvSchArea   = /* advection scheme for area */
(PID.TID 0000.0001)                      33
(PID.TID 0000.0001)     ;
(PID.TID 0000.0001) SEAICEadvSchHeff   = /* advection scheme for thickness */
(PID.TID 0000.0001)                      33
(PID.TID 0000.0001)     ;
(PID.TID 0000.0001) SEAICEadvSchSnow   = /* advection scheme for snow */
(PID.TID 0000.0001)                      33
(PID.TID 0000.0001)     ;
(PID.TID 0000.0001) SEAICEdiffKhArea   = /* diffusivity (m^2/s) for area */
(PID.TID 0000.0001)                 4.000000000000000E+02
(PID.TID 0000.0001)     ;
(PID.TID 0000.0001) SEAICEdiffKhHeff   = /* diffusivity (m^2/s) for heff */
(PID.TID 0000.0001)                 4.000000000000000E+02
(PID.TID 0000.0001)     ;
(PID.TID 0000.0001) SEAICEdiffKhSnow   = /* diffusivity (m^2/s) for snow */
(PID.TID 0000.0001)                 4.000000000000000E+02
(PID.TID 0000.0001)     ;
(PID.TID 0000.0001) DIFF1             = /* parameter used in advect.F [m/s] */
(PID.TID 0000.0001)                 0.000000000000000E+00
(PID.TID 0000.0001)     ;
(PID.TID 0000.0001) 
(PID.TID 0000.0001)    Seaice thermodynamics configuration   > START <
(PID.TID 0000.0001)    -----------------------------------------------
(PID.TID 0000.0001) SEAICE_rhoIce     = /* density of sea ice (kg/m3) */
(PID.TID 0000.0001)                 9.100000000000000E+02
(PID.TID 0000.0001)     ;
(PID.TID 0000.0001) SEAICE_rhoSnow    = /* density of snow (kg/m3) */
(PID.TID 0000.0001)                 3.300000000000000E+02
(PID.TID 0000.0001)     ;
(PID.TID 0000.0001) SEAICE_rhoAir     = /* density of air (kg/m3) */
(PID.TID 0000.0001)                 1.200000000000000E+00
(PID.TID 0000.0001)     ;
(PID.TID 0000.0001) usePW79thermodynamics  = /* default 0-layer TD */
(PID.TID 0000.0001)                   T
(PID.TID 0000.0001)     ;
(PID.TID 0000.0001) SEAICE_lhEvap     = /* latent heat of evaporation */
(PID.TID 0000.0001)                 2.500000000000000E+06
(PID.TID 0000.0001)     ;
(PID.TID 0000.0001) SEAICE_lhFusion   = /* latent heat of fusion */
(PID.TID 0000.0001)                 3.340000000000000E+05
(PID.TID 0000.0001)     ;
(PID.TID 0000.0001) SEAICE_mcPheePiston = /* turbulent flux "piston velocity" a la McPhee (m/s) */
(PID.TID 0000.0001)                 3.858024691358025E-05
(PID.TID 0000.0001)     ;
(PID.TID 0000.0001) SEAICE_mcPheeTaper = /* tapering of turbulent flux (0.< <1.) for AREA=1. */
(PID.TID 0000.0001)                 0.000000000000000E+00
(PID.TID 0000.0001)     ;
(PID.TID 0000.0001) SEAICE_mcPheeStepFunc = /* replace linear tapering with step funct. */
(PID.TID 0000.0001)                   F
(PID.TID 0000.0001)     ;
(PID.TID 0000.0001) SEAICE_frazilFrac = /* frazil (T<tempFrz) to seaice conversion rate (0.< <1.) */
(PID.TID 0000.0001)                 1.000000000000000E+00
(PID.TID 0000.0001)     ;
(PID.TID 0000.0001) SEAICE_tempFrz0   = /* freezing temp. of sea water (intercept) */
(PID.TID 0000.0001)                -1.960000000000000E+00
(PID.TID 0000.0001)     ;
(PID.TID 0000.0001) SEAICE_dTempFrz_dS= /* freezing temp. of sea water (slope) */
(PID.TID 0000.0001)                 0.000000000000000E+00
(PID.TID 0000.0001)     ;
(PID.TID 0000.0001) SEAICE_growMeltByConv  = /* grow,melt by vert. conv. */
(PID.TID 0000.0001)                   F
(PID.TID 0000.0001)     ;
(PID.TID 0000.0001) SEAICE_doOpenWaterGrowth = /* grow by open water */
(PID.TID 0000.0001)                   T
(PID.TID 0000.0001)     ;
(PID.TID 0000.0001) SEAICE_doOpenWaterMelt = /* melt by open water */
(PID.TID 0000.0001)                   F
(PID.TID 0000.0001)     ;
(PID.TID 0000.0001) SEAICE_areaGainFormula = /* ice cover gain formula (1,2)*/
(PID.TID 0000.0001)                       1
(PID.TID 0000.0001)     1=from growth by ATM
(PID.TID 0000.0001)     2=from predicted growth by ATM
(PID.TID 0000.0001)     ;
(PID.TID 0000.0001) SEAICE_areaLossFormula = /* ice cover loss formula (1,2)*/
(PID.TID 0000.0001)                       2
(PID.TID 0000.0001)     1=from all but only melt conributions by ATM and OCN
(PID.TID 0000.0001)     2=from net melt-grow>0 by ATM and OCN
(PID.TID 0000.0001)     3=from predicted melt by ATM
(PID.TID 0000.0001)     ;
(PID.TID 0000.0001) HO                = /* nominal thickness of new ice */
(PID.TID 0000.0001)                 5.000000000000000E-01
(PID.TID 0000.0001)     ;
(PID.TID 0000.0001) HO_south               = /* Southern Ocean HO */
(PID.TID 0000.0001)                 5.000000000000000E-01
(PID.TID 0000.0001)     ;
(PID.TID 0000.0001) SEAICE_area_max        = /* set to les than 1. to mimic open leads */
(PID.TID 0000.0001)                 9.700000000000000E-01
(PID.TID 0000.0001)     ;
(PID.TID 0000.0001) SEAICE_salt0   = /* constant sea ice salinity */
(PID.TID 0000.0001)                 4.000000000000000E+00
(PID.TID 0000.0001)     ;
(PID.TID 0000.0001) SEAICE_salinityTracer = /* test SITR varia. salinity */
(PID.TID 0000.0001)                   F
(PID.TID 0000.0001)     ;
(PID.TID 0000.0001) SEAICEuseFlooding = /* turn submerged snow into ice */
(PID.TID 0000.0001)                   T
(PID.TID 0000.0001)     ;
(PID.TID 0000.0001) 
(PID.TID 0000.0001)    Seaice air-sea fluxes configuration,   > START <
(PID.TID 0000.0001)    -----------------------------------------------
(PID.TID 0000.0001) SEAICEheatConsFix  = /* accound for ocn<->seaice advect. heat flux */
(PID.TID 0000.0001)                   T
(PID.TID 0000.0001)     ;
(PID.TID 0000.0001) SEAICE_multDim    = /* number of ice categories (1 or 7) */
(PID.TID 0000.0001)                       1
(PID.TID 0000.0001)     ;
(PID.TID 0000.0001) SEAICE_PDF        = /* sea-ice distribution (-) */
(PID.TID 0000.0001)                 1.000000000000000E+00,      /* K =  1 */
(PID.TID 0000.0001)     6 @  0.000000000000000E+00              /* K =  2:  7 */
(PID.TID 0000.0001)     ;
(PID.TID 0000.0001) IMAX_TICE         = /* iterations for ice surface temp */
(PID.TID 0000.0001)                      10
(PID.TID 0000.0001)     ;
(PID.TID 0000.0001) postSolvTempIter= /* flux calculation after surf. temp iter */
(PID.TID 0000.0001)                       2
(PID.TID 0000.0001)     ;
(PID.TID 0000.0001) SEAICE_dryIceAlb  = /* winter albedo */
(PID.TID 0000.0001)                 8.400000000000000E-01
(PID.TID 0000.0001)     ;
(PID.TID 0000.0001) SEAICE_wetIceAlb  = /* summer albedo */
(PID.TID 0000.0001)                 7.800000000000000E-01
(PID.TID 0000.0001)     ;
(PID.TID 0000.0001) SEAICE_drySnowAlb = /* dry snow albedo */
(PID.TID 0000.0001)                 9.000000000000000E-01
(PID.TID 0000.0001)     ;
(PID.TID 0000.0001) SEAICE_wetSnowAlb = /* wet snow albedo */
(PID.TID 0000.0001)                 8.000000000000000E-01
(PID.TID 0000.0001)     ;
(PID.TID 0000.0001) SEAICE_dryIceAlb_south = /* Southern Ocean dryIceAlb */
(PID.TID 0000.0001)                 7.500000000000000E-01
(PID.TID 0000.0001)     ;
(PID.TID 0000.0001) SEAICE_wetIceAlb_south = /* Southern Ocean wetIceAlb */
(PID.TID 0000.0001)                 6.600000000000000E-01
(PID.TID 0000.0001)     ;
(PID.TID 0000.0001) SEAICE_drySnowAlb_south= /* Southern Ocean drySnowAlb */
(PID.TID 0000.0001)                 8.400000000000000E-01
(PID.TID 0000.0001)     ;
(PID.TID 0000.0001) SEAICE_wetSnowAlb_south= /* Southern Ocean wetSnowAlb */
(PID.TID 0000.0001)                 7.000000000000000E-01
(PID.TID 0000.0001)     ;
(PID.TID 0000.0001) SEAICE_wetAlbTemp= /* Temp (o.C) threshold for wet-albedo */
(PID.TID 0000.0001)                -1.000000000000000E-03
(PID.TID 0000.0001)     ;
(PID.TID 0000.0001) SEAICE_snow_emiss = /* snow emissivity */
(PID.TID 0000.0001)                 9.500000000000000E-01
(PID.TID 0000.0001)     ;
(PID.TID 0000.0001) SEAICE_ice_emiss = /* seaice emissivity */
(PID.TID 0000.0001)                 9.500000000000000E-01
(PID.TID 0000.0001)     ;
(PID.TID 0000.0001) SEAICE_cpAir      = /* heat capacity of air */
(PID.TID 0000.0001)                 1.005000000000000E+03
(PID.TID 0000.0001)     ;
(PID.TID 0000.0001) SEAICE_dalton     = /* constant dalton number */
(PID.TID 0000.0001)                 1.750000000000000E-03
(PID.TID 0000.0001)     ;
(PID.TID 0000.0001) SEAICE_iceConduct = /* sea-ice conductivity */
(PID.TID 0000.0001)                 2.165600000000000E+00
(PID.TID 0000.0001)     ;
(PID.TID 0000.0001) SEAICE_snowConduct= /* snow conductivity */
(PID.TID 0000.0001)                 3.100000000000000E-01
(PID.TID 0000.0001)     ;
(PID.TID 0000.0001) SEAICE_snowThick  = /* cutoff snow thickness (for albedo) */
(PID.TID 0000.0001)                 1.500000000000000E-01
(PID.TID 0000.0001)     ;
(PID.TID 0000.0001) SEAICE_shortwave  = /* penetration shortwave radiation */
(PID.TID 0000.0001)                 3.000000000000000E-01
(PID.TID 0000.0001)     ;
(PID.TID 0000.0001) useMaykutSatVapPoly = /* use Maykut Polynomial for Sat.Vap.Pr */
(PID.TID 0000.0001)                   F
(PID.TID 0000.0001)     ;
(PID.TID 0000.0001) MIN_ATEMP         = /* minimum air temperature */
(PID.TID 0000.0001)                -4.000000000000000E+01
(PID.TID 0000.0001)     ;
(PID.TID 0000.0001) MIN_LWDOWN        = /* minimum downward longwave */
(PID.TID 0000.0001)                 6.000000000000000E+01
(PID.TID 0000.0001)     ;
(PID.TID 0000.0001) MIN_TICE          = /* minimum ice temperature */
(PID.TID 0000.0001)                -4.000000000000000E+01
(PID.TID 0000.0001)     ;
(PID.TID 0000.0001) 
(PID.TID 0000.0001)    Seaice initialization and IO config.,   > START <
(PID.TID 0000.0001)    -------------------------------------------------
(PID.TID 0000.0001) SEAICE_initialHEFF= /* initial sea-ice thickness */
(PID.TID 0000.0001)                 0.000000000000000E+00
(PID.TID 0000.0001)     ;
(PID.TID 0000.0001) AreaFile = /* Initial ice concentration File */
(PID.TID 0000.0001)               ''
(PID.TID 0000.0001)     ;
(PID.TID 0000.0001) HeffFile = /* Initial effective ice thickness File */
(PID.TID 0000.0001)               ''
(PID.TID 0000.0001)     ;
(PID.TID 0000.0001) HsnowFile = /* Initial snow thickness File */
(PID.TID 0000.0001)               ''
(PID.TID 0000.0001)     ;
(PID.TID 0000.0001) uIceFile = /* Initial U-ice velocity File */
(PID.TID 0000.0001)               ''
(PID.TID 0000.0001)     ;
(PID.TID 0000.0001) vIceFile = /* Initial V-ice velocity File */
(PID.TID 0000.0001)               ''
(PID.TID 0000.0001)     ;
(PID.TID 0000.0001) SEAICEwriteState  = /* write sea ice state to file */
(PID.TID 0000.0001)                   F
(PID.TID 0000.0001)     ;
(PID.TID 0000.0001) SEAICE_monFreq  = /* monitor frequency */
(PID.TID 0000.0001)                 6.307200000000000E+06
(PID.TID 0000.0001)     ;
(PID.TID 0000.0001) SEAICE_dumpFreq   = /* dump frequency */
(PID.TID 0000.0001)                 0.000000000000000E+00
(PID.TID 0000.0001)     ;
(PID.TID 0000.0001) SEAICE_taveFreq   = /* time-averaging frequency */
(PID.TID 0000.0001)                 0.000000000000000E+00
(PID.TID 0000.0001)     ;
(PID.TID 0000.0001) SEAICE_mon_stdio  = /* write monitor to std-outp */
(PID.TID 0000.0001)                   T
(PID.TID 0000.0001)     ;
(PID.TID 0000.0001) SEAICE_dump_mdsio = /* write snap-shot   using MDSIO */
(PID.TID 0000.0001)                   T
(PID.TID 0000.0001)     ;
(PID.TID 0000.0001) SEAICE_tave_mdsio = /* write TimeAverage using MDSIO */
(PID.TID 0000.0001)                   T
(PID.TID 0000.0001)     ;
(PID.TID 0000.0001) 
(PID.TID 0000.0001)    Seaice regularization numbers,   > START <
(PID.TID 0000.0001)    -----------------------------------------------
(PID.TID 0000.0001) SEAICE_deltaMin   = /* reduce singularities in Delta */
(PID.TID 0000.0001)                 1.000000000000000E-10
(PID.TID 0000.0001)     ;
(PID.TID 0000.0001) SEAICE_EPS        = /* small number */
(PID.TID 0000.0001)                 1.000000000000000E-10
(PID.TID 0000.0001)     ;
(PID.TID 0000.0001) SEAICE_EPS_SQ     = /* small number squared */
(PID.TID 0000.0001)                 1.000000000000000E-20
(PID.TID 0000.0001)     ;
(PID.TID 0000.0001) SEAICE_area_reg   = /* reduce derivative singularities */
(PID.TID 0000.0001)                 1.000000000000000E-05
(PID.TID 0000.0001)     ;
(PID.TID 0000.0001) SEAICE_hice_reg   = /* reduce derivative singularities */
(PID.TID 0000.0001)                 5.000000000000000E-02
(PID.TID 0000.0001)     ;
(PID.TID 0000.0001) SEAICE_area_floor = /* reduce derivative singularities */
(PID.TID 0000.0001)                 1.000000000000000E-05
(PID.TID 0000.0001)     ;
(PID.TID 0000.0001) 
(PID.TID 0000.0001) // =======================================================
(PID.TID 0000.0001) // Seaice configuration (SEAICE_PARM01) >>> END <<<
(PID.TID 0000.0001) // =======================================================
(PID.TID 0000.0001) 
(PID.TID 0000.0001) ctrl-wet 1:    nvarlength =         5061
(PID.TID 0000.0001) ctrl-wet 2: surface wet C =           28
(PID.TID 0000.0001) ctrl-wet 3: surface wet W =           28
(PID.TID 0000.0001) ctrl-wet 4: surface wet S =           19
(PID.TID 0000.0001) ctrl-wet 4a:surface wet V =            0
(PID.TID 0000.0001) ctrl-wet 5: 3D wet points =          719
(PID.TID 0000.0001) ctrl-wet 6: no recs for i =     1           0
(PID.TID 0000.0001) ctrl-wet 6: no recs for i =     2           0
(PID.TID 0000.0001) ctrl-wet 6: no recs for i =     3           0
(PID.TID 0000.0001) ctrl-wet 6: no recs for i =     4           0
(PID.TID 0000.0001) ctrl-wet 6: no recs for i =     5           0
(PID.TID 0000.0001) ctrl-wet 6: no recs for i =     6           0
(PID.TID 0000.0001) ctrl-wet 6: no recs for i =     7           0
(PID.TID 0000.0001) ctrl-wet 6: no recs for i =     8           0
(PID.TID 0000.0001) ctrl-wet 6: no recs for i =     9           0
(PID.TID 0000.0001) ctrl-wet 6: no recs for i =    10           0
(PID.TID 0000.0001) ctrl-wet 6: no recs for i =    11           0
(PID.TID 0000.0001) ctrl-wet 6: no recs for i =    12           0
(PID.TID 0000.0001) ctrl-wet 6: no recs for i =    13           0
(PID.TID 0000.0001) ctrl-wet 6: no recs for i =    14           0
(PID.TID 0000.0001) ctrl-wet 6: no recs for i =    15           0
(PID.TID 0000.0001) ctrl-wet 6: no recs for i =    16           0
(PID.TID 0000.0001) ctrl-wet 6: no recs for i =    17           0
(PID.TID 0000.0001) ctrl-wet 6: no recs for i =    18           0
(PID.TID 0000.0001) ctrl-wet 6: no recs for i =    19           0
(PID.TID 0000.0001) ctrl-wet 6: no recs for i =    20           0
(PID.TID 0000.0001) ctrl-wet 6: no recs for i =    21           0
(PID.TID 0000.0001) ctrl-wet 6: no recs for i =    22           0
(PID.TID 0000.0001) ctrl-wet 6: no recs for i =    23           0
(PID.TID 0000.0001) ctrl-wet 6: no recs for i =    24           0
(PID.TID 0000.0001) ctrl-wet 6: no recs for i =    25           0
(PID.TID 0000.0001) ctrl-wet 6: no recs for i =    26           0
(PID.TID 0000.0001) ctrl-wet 6: no recs for i =    27           0
(PID.TID 0000.0001) ctrl-wet 6: no recs for i =    28           0
(PID.TID 0000.0001) ctrl-wet 6: no recs for i =    29           0
(PID.TID 0000.0001) ctrl-wet 6: no recs for i =    30           0
(PID.TID 0000.0001) ctrl-wet 6: no recs for i =    31           0
(PID.TID 0000.0001) ctrl-wet 6: no recs for i =    32           0
(PID.TID 0000.0001) ctrl-wet 6: no recs for i =    33           0
(PID.TID 0000.0001) ctrl-wet 6: no recs for i =    34           0
(PID.TID 0000.0001) ctrl-wet 6: no recs for i =    35           0
(PID.TID 0000.0001) ctrl-wet 6: no recs for i =    36           0
(PID.TID 0000.0001) ctrl-wet 6: no recs for i =    37           0
(PID.TID 0000.0001) ctrl-wet 6: no recs for i =    38           0
(PID.TID 0000.0001) ctrl-wet 6: no recs for i =    39           0
(PID.TID 0000.0001) ctrl-wet 6: no recs for i =    40           0
(PID.TID 0000.0001) ctrl-wet 6: no recs for i =    41           0
(PID.TID 0000.0001) ctrl-wet 6: no recs for i =    42           0
(PID.TID 0000.0001) ctrl-wet 6: no recs for i =    43           0
(PID.TID 0000.0001) ctrl-wet 6: no recs for i =    44           0
(PID.TID 0000.0001) ctrl-wet 6: no recs for i =    45           0
(PID.TID 0000.0001) ctrl-wet 6: no recs for i =    46           0
(PID.TID 0000.0001) ctrl-wet 6: no recs for i =    47           0
(PID.TID 0000.0001) ctrl-wet 6: no recs for i =    48           0
(PID.TID 0000.0001) ctrl-wet 6: no recs for i =    49           0
(PID.TID 0000.0001) ctrl-wet 6: no recs for i =    50           0
(PID.TID 0000.0001) ctrl-wet 6: no recs for i =    51           0
(PID.TID 0000.0001) ctrl-wet 6: no recs for i =    52           0
(PID.TID 0000.0001) ctrl-wet 6: no recs for i =    53           0
(PID.TID 0000.0001) ctrl-wet 6: no recs for i =    54           0
(PID.TID 0000.0001) ctrl-wet 6: no recs for i =    55           0
(PID.TID 0000.0001) ctrl-wet 6: no recs for i =    56           0
(PID.TID 0000.0001) ctrl-wet 6: no recs for i =    57           0
(PID.TID 0000.0001) ctrl-wet 6: no recs for i =    58           0
(PID.TID 0000.0001) ctrl-wet 6: no recs for i =    59           0
(PID.TID 0000.0001) ctrl-wet 6: no recs for i =    60           0
(PID.TID 0000.0001) ctrl-wet 6: no recs for i =    61           0
(PID.TID 0000.0001) ctrl-wet 6: no recs for i =    62           0
(PID.TID 0000.0001) ctrl-wet 6: no recs for i =    63           0
(PID.TID 0000.0001) ctrl-wet 6: no recs for i =    64           0
(PID.TID 0000.0001) ctrl-wet 6: no recs for i =    65           0
(PID.TID 0000.0001) ctrl-wet 6: no recs for i =    66           0
(PID.TID 0000.0001) ctrl-wet 6: no recs for i =    67           0
(PID.TID 0000.0001) ctrl-wet 6: no recs for i =    68           0
(PID.TID 0000.0001) ctrl-wet 6: no recs for i =    69           0
(PID.TID 0000.0001) ctrl-wet 6: no recs for i =    70           0
(PID.TID 0000.0001) ctrl-wet 6: no recs for i =    71           0
(PID.TID 0000.0001) ctrl-wet 6: no recs for i =    72           0
(PID.TID 0000.0001) ctrl-wet 6: no recs for i =    73           0
(PID.TID 0000.0001) ctrl-wet 6: no recs for i =    74           0
(PID.TID 0000.0001) ctrl-wet 6: no recs for i =    75           0
(PID.TID 0000.0001) ctrl-wet 6: no recs for i =    76           0
(PID.TID 0000.0001) ctrl-wet 6: no recs for i =    77           0
(PID.TID 0000.0001) ctrl-wet 6: no recs for i =    78           0
(PID.TID 0000.0001) ctrl-wet 6: no recs for i =    79           0
(PID.TID 0000.0001) ctrl-wet 6: no recs for i =    80           0
(PID.TID 0000.0001) ctrl-wet 6: no recs for i =    81           0
(PID.TID 0000.0001) ctrl-wet 6: no recs for i =    82           0
(PID.TID 0000.0001) ctrl-wet 6: no recs for i =    83           0
(PID.TID 0000.0001) ctrl-wet 6: no recs for i =    84           0
(PID.TID 0000.0001) ctrl-wet 6: no recs for i =    85           0
(PID.TID 0000.0001) ctrl-wet 6: no recs for i =    86           0
(PID.TID 0000.0001) ctrl-wet 6: no recs for i =    87           0
(PID.TID 0000.0001) ctrl-wet 6: no recs for i =    88           0
(PID.TID 0000.0001) ctrl-wet 6: no recs for i =    89           0
(PID.TID 0000.0001) ctrl-wet 6: no recs for i =    90           0
(PID.TID 0000.0001) ctrl-wet 6: no recs for i =    91           0
(PID.TID 0000.0001) ctrl-wet 6: no recs for i =    92           0
(PID.TID 0000.0001) ctrl-wet 6: no recs for i =    93           0
(PID.TID 0000.0001) ctrl-wet 6: no recs for i =    94           0
(PID.TID 0000.0001) ctrl-wet 6: no recs for i =    95           0
(PID.TID 0000.0001) ctrl-wet 6: no recs for i =    96           0
(PID.TID 0000.0001) ctrl-wet 6: no recs for i =    97           0
(PID.TID 0000.0001) ctrl-wet 6: no recs for i =    98           0
(PID.TID 0000.0001) ctrl-wet 6: no recs for i =    99           0
(PID.TID 0000.0001) ctrl-wet 6: no recs for i =   100           0
(PID.TID 0000.0001) ctrl-wet 6: no recs for i =   101           1
(PID.TID 0000.0001) ctrl-wet 6: no recs for i =   102           0
(PID.TID 0000.0001) ctrl-wet 6: no recs for i =   103           0
(PID.TID 0000.0001) ctrl-wet 6: no recs for i =   104           0
(PID.TID 0000.0001) ctrl-wet 6: no recs for i =   105           0
(PID.TID 0000.0001) ctrl-wet 6: no recs for i =   106           0
(PID.TID 0000.0001) ctrl-wet 6: no recs for i =   107           0
(PID.TID 0000.0001) ctrl-wet 6: no recs for i =   108           0
(PID.TID 0000.0001) ctrl-wet 6: no recs for i =   109           0
(PID.TID 0000.0001) ctrl-wet 6: no recs for i =   110           0
(PID.TID 0000.0001) ctrl-wet 6: no recs for i =   111           0
(PID.TID 0000.0001) ctrl-wet 6: no recs for i =   112           0
(PID.TID 0000.0001) ctrl-wet 6: no recs for i =   113           0
(PID.TID 0000.0001) ctrl-wet 6: no recs for i =   114           0
(PID.TID 0000.0001) ctrl-wet 6: no recs for i =   115           0
(PID.TID 0000.0001) ctrl-wet 6: no recs for i =   116           0
(PID.TID 0000.0001) ctrl-wet 6: no recs for i =   117           0
(PID.TID 0000.0001) ctrl-wet 6: no recs for i =   118           0
(PID.TID 0000.0001) ctrl-wet 6: no recs for i =   119           0
(PID.TID 0000.0001) ctrl-wet 6: no recs for i =   120           0
(PID.TID 0000.0001) ctrl-wet 6: no recs for i =   121           0
(PID.TID 0000.0001) ctrl-wet 6: no recs for i =   122           0
(PID.TID 0000.0001) ctrl-wet 6: no recs for i =   123           0
(PID.TID 0000.0001) ctrl-wet 6: no recs for i =   124           0
(PID.TID 0000.0001) ctrl-wet 6: no recs for i =   125           0
(PID.TID 0000.0001) ctrl-wet 6: no recs for i =   126           0
(PID.TID 0000.0001) ctrl-wet 6: no recs for i =   127           0
(PID.TID 0000.0001) ctrl-wet 6: no recs for i =   128           0
(PID.TID 0000.0001) ctrl-wet 6: no recs for i =   129           0
(PID.TID 0000.0001) ctrl-wet 6: no recs for i =   130           0
(PID.TID 0000.0001) ctrl-wet 6: no recs for i =   131           0
(PID.TID 0000.0001) ctrl-wet 6: no recs for i =   132           0
(PID.TID 0000.0001) ctrl-wet 6: no recs for i =   133           0
(PID.TID 0000.0001) ctrl-wet 6: no recs for i =   134           0
(PID.TID 0000.0001) ctrl-wet 6: no recs for i =   135           0
(PID.TID 0000.0001) ctrl-wet 6: no recs for i =   136           0
(PID.TID 0000.0001) ctrl-wet 6: no recs for i =   137           0
(PID.TID 0000.0001) ctrl-wet 6: no recs for i =   138           0
(PID.TID 0000.0001) ctrl-wet 6: no recs for i =   139           0
(PID.TID 0000.0001) ctrl-wet 6: no recs for i =   140           0
(PID.TID 0000.0001) ctrl-wet 6: no recs for i =   141           0
(PID.TID 0000.0001) ctrl-wet 6: no recs for i =   142           0
(PID.TID 0000.0001) ctrl-wet 6: no recs for i =   143           0
(PID.TID 0000.0001) ctrl-wet 6: no recs for i =   144           0
(PID.TID 0000.0001) ctrl-wet 6: no recs for i =   145           0
(PID.TID 0000.0001) ctrl-wet 6: no recs for i =   146           0
(PID.TID 0000.0001) ctrl-wet 6: no recs for i =   147           0
(PID.TID 0000.0001) ctrl-wet 6: no recs for i =   148           0
(PID.TID 0000.0001) ctrl-wet 6: no recs for i =   149           0
(PID.TID 0000.0001) ctrl-wet 6: no recs for i =   150           0
(PID.TID 0000.0001) ctrl-wet 6: no recs for i =   151           0
(PID.TID 0000.0001) ctrl-wet 6: no recs for i =   152           0
(PID.TID 0000.0001) ctrl-wet 6: no recs for i =   153           0
(PID.TID 0000.0001) ctrl-wet 6: no recs for i =   154           0
(PID.TID 0000.0001) ctrl-wet 6: no recs for i =   155           0
(PID.TID 0000.0001) ctrl-wet 6: no recs for i =   156           0
(PID.TID 0000.0001) ctrl-wet 6: no recs for i =   157           0
(PID.TID 0000.0001) ctrl-wet 6: no recs for i =   158           0
(PID.TID 0000.0001) ctrl-wet 6: no recs for i =   159           0
(PID.TID 0000.0001) ctrl-wet 6: no recs for i =   160           0
(PID.TID 0000.0001) ctrl-wet 6: no recs for i =   161           0
(PID.TID 0000.0001) ctrl-wet 6: no recs for i =   162           0
(PID.TID 0000.0001) ctrl-wet 6: no recs for i =   163           0
(PID.TID 0000.0001) ctrl-wet 6: no recs for i =   164           0
(PID.TID 0000.0001) ctrl-wet 6: no recs for i =   165           0
(PID.TID 0000.0001) ctrl-wet 6: no recs for i =   166           0
(PID.TID 0000.0001) ctrl-wet 6: no recs for i =   167           0
(PID.TID 0000.0001) ctrl-wet 6: no recs for i =   168           0
(PID.TID 0000.0001) ctrl-wet 6: no recs for i =   169           0
(PID.TID 0000.0001) ctrl-wet 6: no recs for i =   170           0
(PID.TID 0000.0001) ctrl-wet 6: no recs for i =   171           0
(PID.TID 0000.0001) ctrl-wet 6: no recs for i =   172           0
(PID.TID 0000.0001) ctrl-wet 6: no recs for i =   173           0
(PID.TID 0000.0001) ctrl-wet 6: no recs for i =   174           0
(PID.TID 0000.0001) ctrl-wet 6: no recs for i =   175           0
(PID.TID 0000.0001) ctrl-wet 6: no recs for i =   176           0
(PID.TID 0000.0001) ctrl-wet 6: no recs for i =   177           0
(PID.TID 0000.0001) ctrl-wet 6: no recs for i =   178           0
(PID.TID 0000.0001) ctrl-wet 6: no recs for i =   179           0
(PID.TID 0000.0001) ctrl-wet 6: no recs for i =   180           0
(PID.TID 0000.0001) ctrl-wet 6: no recs for i =   181           0
(PID.TID 0000.0001) ctrl-wet 6: no recs for i =   182           0
(PID.TID 0000.0001) ctrl-wet 6: no recs for i =   183           0
(PID.TID 0000.0001) ctrl-wet 6: no recs for i =   184           0
(PID.TID 0000.0001) ctrl-wet 6: no recs for i =   185           0
(PID.TID 0000.0001) ctrl-wet 6: no recs for i =   186           0
(PID.TID 0000.0001) ctrl-wet 6: no recs for i =   187           0
(PID.TID 0000.0001) ctrl-wet 6: no recs for i =   188           0
(PID.TID 0000.0001) ctrl-wet 6: no recs for i =   189           0
(PID.TID 0000.0001) ctrl-wet 6: no recs for i =   190           0
(PID.TID 0000.0001) ctrl-wet 6: no recs for i =   191           0
(PID.TID 0000.0001) ctrl-wet 6: no recs for i =   192           0
(PID.TID 0000.0001) ctrl-wet 6: no recs for i =   193           0
(PID.TID 0000.0001) ctrl-wet 6: no recs for i =   194           0
(PID.TID 0000.0001) ctrl-wet 6: no recs for i =   195           0
(PID.TID 0000.0001) ctrl-wet 6: no recs for i =   196           0
(PID.TID 0000.0001) ctrl-wet 6: no recs for i =   197           0
(PID.TID 0000.0001) ctrl-wet 6: no recs for i =   198           0
(PID.TID 0000.0001) ctrl-wet 6: no recs for i =   199           0
(PID.TID 0000.0001) ctrl-wet 6: no recs for i =   200           0
(PID.TID 0000.0001) ctrl-wet 6: no recs for i =   201           1
(PID.TID 0000.0001) ctrl-wet 6: no recs for i =   202           1
(PID.TID 0000.0001) ctrl-wet 6: no recs for i =   203           1
(PID.TID 0000.0001) ctrl-wet 6: no recs for i =   204           1
(PID.TID 0000.0001) ctrl-wet 6: no recs for i =   205           1
(PID.TID 0000.0001) ctrl-wet 6: no recs for i =   206           1
(PID.TID 0000.0001) ctrl-wet 6: no recs for i =   207           1
(PID.TID 0000.0001) ctrl-wet 6: no recs for i =   208           0
(PID.TID 0000.0001) ctrl-wet 6: no recs for i =   209           0
(PID.TID 0000.0001) ctrl-wet 6: no recs for i =   210           0
(PID.TID 0000.0001) ctrl-wet 6: no recs for i =   211           0
(PID.TID 0000.0001) ctrl-wet 6: no recs for i =   212           0
(PID.TID 0000.0001) ctrl-wet 6: no recs for i =   213           0
(PID.TID 0000.0001) ctrl-wet 6: no recs for i =   214           0
(PID.TID 0000.0001) ctrl-wet 6: no recs for i =   215           0
(PID.TID 0000.0001) ctrl-wet 6: no recs for i =   216           0
(PID.TID 0000.0001) ctrl-wet 6: no recs for i =   217           0
(PID.TID 0000.0001) ctrl-wet 6: no recs for i =   218           0
(PID.TID 0000.0001) ctrl-wet 6: no recs for i =   219           0
(PID.TID 0000.0001) ctrl-wet 6: no recs for i =   220           0
(PID.TID 0000.0001) ctrl-wet 6: no recs for i =   221           0
(PID.TID 0000.0001) ctrl-wet 6: no recs for i =   222           0
(PID.TID 0000.0001) ctrl-wet 6: no recs for i =   223           0
(PID.TID 0000.0001) ctrl-wet 6: no recs for i =   224           0
(PID.TID 0000.0001) ctrl-wet 6: no recs for i =   225           0
(PID.TID 0000.0001) ctrl-wet 6: no recs for i =   226           0
(PID.TID 0000.0001) ctrl-wet 6: no recs for i =   227           0
(PID.TID 0000.0001) ctrl-wet 6: no recs for i =   228           0
(PID.TID 0000.0001) ctrl-wet 6: no recs for i =   229           0
(PID.TID 0000.0001) ctrl-wet 6: no recs for i =   230           0
(PID.TID 0000.0001) ctrl-wet 6: no recs for i =   231           0
(PID.TID 0000.0001) ctrl-wet 6: no recs for i =   232           0
(PID.TID 0000.0001) ctrl-wet 6: no recs for i =   233           0
(PID.TID 0000.0001) ctrl-wet 6: no recs for i =   234           0
(PID.TID 0000.0001) ctrl-wet 6: no recs for i =   235           0
(PID.TID 0000.0001) ctrl-wet 6: no recs for i =   236           0
(PID.TID 0000.0001) ctrl-wet 6: no recs for i =   237           0
(PID.TID 0000.0001) ctrl-wet 6: no recs for i =   238           0
(PID.TID 0000.0001) ctrl-wet 6: no recs for i =   239           0
(PID.TID 0000.0001) ctrl-wet 6: no recs for i =   240           0
(PID.TID 0000.0001) ctrl-wet 6: no recs for i =   241           0
(PID.TID 0000.0001) ctrl-wet 6: no recs for i =   242           0
(PID.TID 0000.0001) ctrl-wet 6: no recs for i =   243           0
(PID.TID 0000.0001) ctrl-wet 6: no recs for i =   244           0
(PID.TID 0000.0001) ctrl-wet 6: no recs for i =   245           0
(PID.TID 0000.0001) ctrl-wet 6: no recs for i =   246           0
(PID.TID 0000.0001) ctrl-wet 6: no recs for i =   247           0
(PID.TID 0000.0001) ctrl-wet 6: no recs for i =   248           0
(PID.TID 0000.0001) ctrl-wet 6: no recs for i =   249           0
(PID.TID 0000.0001) ctrl-wet 6: no recs for i =   250           0
(PID.TID 0000.0001) ctrl-wet 6: no recs for i =   251           0
(PID.TID 0000.0001) ctrl-wet 6: no recs for i =   252           0
(PID.TID 0000.0001) ctrl-wet 6: no recs for i =   253           0
(PID.TID 0000.0001) ctrl-wet 6: no recs for i =   254           0
(PID.TID 0000.0001) ctrl-wet 6: no recs for i =   255           0
(PID.TID 0000.0001) ctrl-wet 6: no recs for i =   256           0
(PID.TID 0000.0001) ctrl-wet 6: no recs for i =   257           0
(PID.TID 0000.0001) ctrl-wet 6: no recs for i =   258           0
(PID.TID 0000.0001) ctrl-wet 6: no recs for i =   259           0
(PID.TID 0000.0001) ctrl-wet 6: no recs for i =   260           0
(PID.TID 0000.0001) ctrl-wet 6: no recs for i =   261           0
(PID.TID 0000.0001) ctrl-wet 6: no recs for i =   262           0
(PID.TID 0000.0001) ctrl-wet 6: no recs for i =   263           0
(PID.TID 0000.0001) ctrl-wet 6: no recs for i =   264           0
(PID.TID 0000.0001) ctrl-wet 6: no recs for i =   265           0
(PID.TID 0000.0001) ctrl-wet 6: no recs for i =   266           0
(PID.TID 0000.0001) ctrl-wet 6: no recs for i =   267           0
(PID.TID 0000.0001) ctrl-wet 6: no recs for i =   268           0
(PID.TID 0000.0001) ctrl-wet 6: no recs for i =   269           0
(PID.TID 0000.0001) ctrl-wet 6: no recs for i =   270           0
(PID.TID 0000.0001) ctrl-wet 6: no recs for i =   271           0
(PID.TID 0000.0001) ctrl-wet 6: no recs for i =   272           0
(PID.TID 0000.0001) ctrl-wet 6: no recs for i =   273           0
(PID.TID 0000.0001) ctrl-wet 6: no recs for i =   274           0
(PID.TID 0000.0001) ctrl-wet 6: no recs for i =   275           0
(PID.TID 0000.0001) ctrl-wet 6: no recs for i =   276           0
(PID.TID 0000.0001) ctrl-wet 6: no recs for i =   277           0
(PID.TID 0000.0001) ctrl-wet 6: no recs for i =   278           0
(PID.TID 0000.0001) ctrl-wet 6: no recs for i =   279           0
(PID.TID 0000.0001) ctrl-wet 6: no recs for i =   280           0
(PID.TID 0000.0001) ctrl-wet 6: no recs for i =   281           0
(PID.TID 0000.0001) ctrl-wet 6: no recs for i =   282           0
(PID.TID 0000.0001) ctrl-wet 6: no recs for i =   283           0
(PID.TID 0000.0001) ctrl-wet 6: no recs for i =   284           0
(PID.TID 0000.0001) ctrl-wet 6: no recs for i =   285           0
(PID.TID 0000.0001) ctrl-wet 6: no recs for i =   286           0
(PID.TID 0000.0001) ctrl-wet 6: no recs for i =   287           0
(PID.TID 0000.0001) ctrl-wet 6: no recs for i =   288           0
(PID.TID 0000.0001) ctrl-wet 6: no recs for i =   289           0
(PID.TID 0000.0001) ctrl-wet 6: no recs for i =   290           0
(PID.TID 0000.0001) ctrl-wet 6: no recs for i =   291           0
(PID.TID 0000.0001) ctrl-wet 6: no recs for i =   292           0
(PID.TID 0000.0001) ctrl-wet 6: no recs for i =   293           0
(PID.TID 0000.0001) ctrl-wet 6: no recs for i =   294           0
(PID.TID 0000.0001) ctrl-wet 6: no recs for i =   295           0
(PID.TID 0000.0001) ctrl-wet 6: no recs for i =   296           0
(PID.TID 0000.0001) ctrl-wet 6: no recs for i =   297           0
(PID.TID 0000.0001) ctrl-wet 6: no recs for i =   298           0
(PID.TID 0000.0001) ctrl-wet 6: no recs for i =   299           0
(PID.TID 0000.0001) ctrl-wet 6: no recs for i =   300           0
(PID.TID 0000.0001) ctrl-wet 6: no recs for i =   301           0
(PID.TID 0000.0001) ctrl-wet 6: no recs for i =   302           0
(PID.TID 0000.0001) ctrl-wet 6: no recs for i =   303           0
(PID.TID 0000.0001) ctrl-wet 6: no recs for i =   304           0
(PID.TID 0000.0001) ctrl-wet 6: no recs for i =   305           0
(PID.TID 0000.0001) ctrl-wet 6: no recs for i =   306           0
(PID.TID 0000.0001) ctrl-wet 6: no recs for i =   307           0
(PID.TID 0000.0001) ctrl-wet 6: no recs for i =   308           0
(PID.TID 0000.0001) ctrl-wet 6: no recs for i =   309           0
(PID.TID 0000.0001) ctrl-wet 6: no recs for i =   310           0
(PID.TID 0000.0001) ctrl-wet 6: no recs for i =   311           0
(PID.TID 0000.0001) ctrl-wet 6: no recs for i =   312           0
(PID.TID 0000.0001) ctrl-wet 6: no recs for i =   313           0
(PID.TID 0000.0001) ctrl-wet 6: no recs for i =   314           0
(PID.TID 0000.0001) ctrl-wet 6: no recs for i =   315           0
(PID.TID 0000.0001) ctrl-wet 6: no recs for i =   316           0
(PID.TID 0000.0001) ctrl-wet 6: no recs for i =   317           0
(PID.TID 0000.0001) ctrl-wet 6: no recs for i =   318           0
(PID.TID 0000.0001) ctrl-wet 6: no recs for i =   319           0
(PID.TID 0000.0001) ctrl-wet 6: no recs for i =   320           0
(PID.TID 0000.0001) ctrl-wet 6: no recs for i =   321           0
(PID.TID 0000.0001) ctrl-wet 6: no recs for i =   322           0
(PID.TID 0000.0001) ctrl-wet 6: no recs for i =   323           0
(PID.TID 0000.0001) ctrl-wet 6: no recs for i =   324           0
(PID.TID 0000.0001) ctrl-wet 6: no recs for i =   325           0
(PID.TID 0000.0001) ctrl-wet 6: no recs for i =   326           0
(PID.TID 0000.0001) ctrl-wet 6: no recs for i =   327           0
(PID.TID 0000.0001) ctrl-wet 6: no recs for i =   328           0
(PID.TID 0000.0001) ctrl-wet 6: no recs for i =   329           0
(PID.TID 0000.0001) ctrl-wet 6: no recs for i =   330           0
(PID.TID 0000.0001) ctrl-wet 6: no recs for i =   331           0
(PID.TID 0000.0001) ctrl-wet 6: no recs for i =   332           0
(PID.TID 0000.0001) ctrl-wet 6: no recs for i =   333           0
(PID.TID 0000.0001) ctrl-wet 6: no recs for i =   334           0
(PID.TID 0000.0001) ctrl-wet 6: no recs for i =   335           0
(PID.TID 0000.0001) ctrl-wet 6: no recs for i =   336           0
(PID.TID 0000.0001) ctrl-wet 6: no recs for i =   337           0
(PID.TID 0000.0001) ctrl-wet 6: no recs for i =   338           0
(PID.TID 0000.0001) ctrl-wet 6: no recs for i =   339           0
(PID.TID 0000.0001) ctrl-wet 6: no recs for i =   340           0
(PID.TID 0000.0001) ctrl-wet 6: no recs for i =   341           0
(PID.TID 0000.0001) ctrl-wet 6: no recs for i =   342           0
(PID.TID 0000.0001) ctrl-wet 6: no recs for i =   343           0
(PID.TID 0000.0001) ctrl-wet 6: no recs for i =   344           0
(PID.TID 0000.0001) ctrl-wet 6: no recs for i =   345           0
(PID.TID 0000.0001) ctrl-wet 6: no recs for i =   346           0
(PID.TID 0000.0001) ctrl-wet 6: no recs for i =   347           0
(PID.TID 0000.0001) ctrl-wet 6: no recs for i =   348           0
(PID.TID 0000.0001) ctrl-wet 6: no recs for i =   349           0
(PID.TID 0000.0001) ctrl-wet 6: no recs for i =   350           0
(PID.TID 0000.0001) ctrl-wet 6: no recs for i =   351           0
(PID.TID 0000.0001) ctrl-wet 6: no recs for i =   352           0
(PID.TID 0000.0001) ctrl-wet 6: no recs for i =   353           0
(PID.TID 0000.0001) ctrl-wet 6: no recs for i =   354           0
(PID.TID 0000.0001) ctrl-wet 6: no recs for i =   355           0
(PID.TID 0000.0001) ctrl-wet 6: no recs for i =   356           0
(PID.TID 0000.0001) ctrl-wet 6: no recs for i =   357           0
(PID.TID 0000.0001) ctrl-wet 6: no recs for i =   358           0
(PID.TID 0000.0001) ctrl-wet 6: no recs for i =   359           0
(PID.TID 0000.0001) ctrl-wet 6: no recs for i =   360           0
(PID.TID 0000.0001) ctrl-wet 6: no recs for i =   361           0
(PID.TID 0000.0001) ctrl-wet 6: no recs for i =   362           0
(PID.TID 0000.0001) ctrl-wet 6: no recs for i =   363           0
(PID.TID 0000.0001) ctrl-wet 6: no recs for i =   364           0
(PID.TID 0000.0001) ctrl-wet 6: no recs for i =   365           0
(PID.TID 0000.0001) ctrl-wet 6: no recs for i =   366           0
(PID.TID 0000.0001) ctrl-wet 6: no recs for i =   367           0
(PID.TID 0000.0001) ctrl-wet 6: no recs for i =   368           0
(PID.TID 0000.0001) ctrl-wet 6: no recs for i =   369           0
(PID.TID 0000.0001) ctrl-wet 6: no recs for i =   370           0
(PID.TID 0000.0001) ctrl-wet 6: no recs for i =   371           0
(PID.TID 0000.0001) ctrl-wet 6: no recs for i =   372           0
(PID.TID 0000.0001) ctrl-wet 6: no recs for i =   373           0
(PID.TID 0000.0001) ctrl-wet 6: no recs for i =   374           0
(PID.TID 0000.0001) ctrl-wet 6: no recs for i =   375           0
(PID.TID 0000.0001) ctrl-wet 6: no recs for i =   376           0
(PID.TID 0000.0001) ctrl-wet 6: no recs for i =   377           0
(PID.TID 0000.0001) ctrl-wet 6: no recs for i =   378           0
(PID.TID 0000.0001) ctrl-wet 6: no recs for i =   379           0
(PID.TID 0000.0001) ctrl-wet 6: no recs for i =   380           0
(PID.TID 0000.0001) ctrl-wet 6: no recs for i =   381           0
(PID.TID 0000.0001) ctrl-wet 6: no recs for i =   382           0
(PID.TID 0000.0001) ctrl-wet 6: no recs for i =   383           0
(PID.TID 0000.0001) ctrl-wet 6: no recs for i =   384           0
(PID.TID 0000.0001) ctrl-wet 6: no recs for i =   385           0
(PID.TID 0000.0001) ctrl-wet 6: no recs for i =   386           0
(PID.TID 0000.0001) ctrl-wet 6: no recs for i =   387           0
(PID.TID 0000.0001) ctrl-wet 6: no recs for i =   388           0
(PID.TID 0000.0001) ctrl-wet 6: no recs for i =   389           0
(PID.TID 0000.0001) ctrl-wet 6: no recs for i =   390           0
(PID.TID 0000.0001) ctrl-wet 6: no recs for i =   391           0
(PID.TID 0000.0001) ctrl-wet 6: no recs for i =   392           0
(PID.TID 0000.0001) ctrl-wet 6: no recs for i =   393           0
(PID.TID 0000.0001) ctrl-wet 6: no recs for i =   394           0
(PID.TID 0000.0001) ctrl-wet 6: no recs for i =   395           0
(PID.TID 0000.0001) ctrl-wet 6: no recs for i =   396           0
(PID.TID 0000.0001) ctrl-wet 6: no recs for i =   397           0
(PID.TID 0000.0001) ctrl-wet 6: no recs for i =   398           0
(PID.TID 0000.0001) ctrl-wet 6: no recs for i =   399           0
(PID.TID 0000.0001) ctrl-wet 6: no recs for i =   400           0
(PID.TID 0000.0001) ctrl-wet 7: flux          1438
(PID.TID 0000.0001) ctrl-wet 8: atmos         1438
(PID.TID 0000.0001) ctrl-wet -------------------------------------------------
(PID.TID 0000.0001) ctrl-wet 13: global nvarlength for Nr =   50    16909590
(PID.TID 0000.0001) ctrl-wet -------------------------------------------------
(PID.TID 0000.0001) ctrl-wet 14: global nWet C/S/W/V k=    1       60646       59295       59493           0
(PID.TID 0000.0001) ctrl-wet 14: global nWet C/S/W/V k=    2       60646       59295       59493           0
(PID.TID 0000.0001) ctrl-wet 14: global nWet C/S/W/V k=    3       59874       58517       58725           0
(PID.TID 0000.0001) ctrl-wet 14: global nWet C/S/W/V k=    4       59387       58040       58258           0
(PID.TID 0000.0001) ctrl-wet 14: global nWet C/S/W/V k=    5       58882       57536       57754           0
(PID.TID 0000.0001) ctrl-wet 14: global nWet C/S/W/V k=    6       58399       57057       57276           0
(PID.TID 0000.0001) ctrl-wet 14: global nWet C/S/W/V k=    7       58052       56735       56936           0
(PID.TID 0000.0001) ctrl-wet 14: global nWet C/S/W/V k=    8       57781       56461       56669           0
(PID.TID 0000.0001) ctrl-wet 14: global nWet C/S/W/V k=    9       57530       56212       56416           0
(PID.TID 0000.0001) ctrl-wet 14: global nWet C/S/W/V k=   10       57283       55964       56154           0
(PID.TID 0000.0001) ctrl-wet 14: global nWet C/S/W/V k=   11       57022       55702       55883           0
(PID.TID 0000.0001) ctrl-wet 14: global nWet C/S/W/V k=   12       56818       55497       55681           0
(PID.TID 0000.0001) ctrl-wet 14: global nWet C/S/W/V k=   13       56634       55322       55509           0
(PID.TID 0000.0001) ctrl-wet 14: global nWet C/S/W/V k=   14       56430       55125       55312           0
(PID.TID 0000.0001) ctrl-wet 14: global nWet C/S/W/V k=   15       56238       54935       55117           0
(PID.TID 0000.0001) ctrl-wet 14: global nWet C/S/W/V k=   16       55975       54689       54858           0
(PID.TID 0000.0001) ctrl-wet 14: global nWet C/S/W/V k=   17       55703       54421       54600           0
(PID.TID 0000.0001) ctrl-wet 14: global nWet C/S/W/V k=   18       55358       54075       54251           0
(PID.TID 0000.0001) ctrl-wet 14: global nWet C/S/W/V k=   19       54964       53666       53853           0
(PID.TID 0000.0001) ctrl-wet 14: global nWet C/S/W/V k=   20       54471       53205       53372           0
(PID.TID 0000.0001) ctrl-wet 14: global nWet C/S/W/V k=   21       53952       52716       52877           0
(PID.TID 0000.0001) ctrl-wet 14: global nWet C/S/W/V k=   22       53489       52249       52409           0
(PID.TID 0000.0001) ctrl-wet 14: global nWet C/S/W/V k=   23       52892       51633       51797           0
(PID.TID 0000.0001) ctrl-wet 14: global nWet C/S/W/V k=   24       52223       50961       51129           0
(PID.TID 0000.0001) ctrl-wet 14: global nWet C/S/W/V k=   25       51696       50480       50635           0
(PID.TID 0000.0001) ctrl-wet 14: global nWet C/S/W/V k=   26       51259       50075       50241           0
(PID.TID 0000.0001) ctrl-wet 14: global nWet C/S/W/V k=   27       50929       49774       49935           0
(PID.TID 0000.0001) ctrl-wet 14: global nWet C/S/W/V k=   28       50664       49532       49678           0
(PID.TID 0000.0001) ctrl-wet 14: global nWet C/S/W/V k=   29       50438       49306       49450           0
(PID.TID 0000.0001) ctrl-wet 14: global nWet C/S/W/V k=   30       50187       49035       49179           0
(PID.TID 0000.0001) ctrl-wet 14: global nWet C/S/W/V k=   31       49964       48805       48937           0
(PID.TID 0000.0001) ctrl-wet 14: global nWet C/S/W/V k=   32       49700       48530       48662           0
(PID.TID 0000.0001) ctrl-wet 14: global nWet C/S/W/V k=   33       49431       48260       48383           0
(PID.TID 0000.0001) ctrl-wet 14: global nWet C/S/W/V k=   34       49176       47993       48108           0
(PID.TID 0000.0001) ctrl-wet 14: global nWet C/S/W/V k=   35       48854       47652       47764           0
(PID.TID 0000.0001) ctrl-wet 14: global nWet C/S/W/V k=   36       48501       47264       47375           0
(PID.TID 0000.0001) ctrl-wet 14: global nWet C/S/W/V k=   37       48098       46846       46951           0
(PID.TID 0000.0001) ctrl-wet 14: global nWet C/S/W/V k=   38       47523       46253       46362           0
(PID.TID 0000.0001) ctrl-wet 14: global nWet C/S/W/V k=   39       46849       45558       45657           0
(PID.TID 0000.0001) ctrl-wet 14: global nWet C/S/W/V k=   40       45984       44670       44751           0
(PID.TID 0000.0001) ctrl-wet 14: global nWet C/S/W/V k=   41       44793       43419       43459           0
(PID.TID 0000.0001) ctrl-wet 14: global nWet C/S/W/V k=   42       42984       41497       41533           0
(PID.TID 0000.0001) ctrl-wet 14: global nWet C/S/W/V k=   43       40302       38691       38718           0
(PID.TID 0000.0001) ctrl-wet 14: global nWet C/S/W/V k=   44       36689       35007       35032           0
(PID.TID 0000.0001) ctrl-wet 14: global nWet C/S/W/V k=   45       31681       30069       29999           0
(PID.TID 0000.0001) ctrl-wet 14: global nWet C/S/W/V k=   46       25595       24028       24031           0
(PID.TID 0000.0001) ctrl-wet 14: global nWet C/S/W/V k=   47       18224       16890       16872           0
(PID.TID 0000.0001) ctrl-wet 14: global nWet C/S/W/V k=   48       11407       10397       10351           0
(PID.TID 0000.0001) ctrl-wet 14: global nWet C/S/W/V k=   49        4597        3913        3912           0
(PID.TID 0000.0001) ctrl-wet 14: global nWet C/S/W/V k=   50         818         624         622           0
(PID.TID 0000.0001) ctrl-wet -------------------------------------------------
(PID.TID 0000.0001) ctrl-wet -------------------------------------------------
(PID.TID 0000.0001) ctrl-wet -------------------------------------------------
(PID.TID 0000.0001) ctrl_init: no. of control variables:            8
(PID.TID 0000.0001) ctrl_init: control vector length:        16909590
(PID.TID 0000.0001) 
(PID.TID 0000.0001) // =======================================================
(PID.TID 0000.0001) // control vector configuration  >>> START <<<
(PID.TID 0000.0001) // =======================================================
(PID.TID 0000.0001) 
(PID.TID 0000.0001)  Total number of ocean points per tile:
(PID.TID 0000.0001)  --------------------------------------
(PID.TID 0000.0001)  snx*sny*nr =    11250
(PID.TID 0000.0001) 
(PID.TID 0000.0001)  Number of ocean points per tile:
(PID.TID 0000.0001)  --------------------------------
(PID.TID 0000.0001)  bi,bj,#(c/s/w): 0001 0001 000719 000491 000711
(PID.TID 0000.0001) 
(PID.TID 0000.0001)  Settings of generic controls:
(PID.TID 0000.0001)  -----------------------------
(PID.TID 0000.0001) 
(PID.TID 0000.0001)  ctrlUseGen  =     T /* use generic controls */
(PID.TID 0000.0001)  -> 2D control, genarr2d no.  1 is in use
(PID.TID 0000.0001)       file       = xx_etan
(PID.TID 0000.0001)       weight     = SSH_weights_nonseasonal_rms_areascaled.bin
(PID.TID 0000.0001)  preprocess = WC01
(PID.TID 0000.0001)  -> 3d control, genarr3d no.  1 is in use
(PID.TID 0000.0001)       file       = xx_theta
(PID.TID 0000.0001)       weight     = Theta_weights_nonseasonal_rmsv2_areascaled.bin
(PID.TID 0000.0001)  preprocess = WC01
(PID.TID 0000.0001)  -> 3d control, genarr3d no.  2 is in use
(PID.TID 0000.0001)       file       = xx_salt
(PID.TID 0000.0001)       weight     = Salt_weights_nonseasonal_rmsv2_areascaled.bin
(PID.TID 0000.0001)  preprocess = WC01
(PID.TID 0000.0001)  -> 3d control, genarr3d no.  3 is in use
(PID.TID 0000.0001)       file       = xx_kapgm
(PID.TID 0000.0001)       weight     = r2.wkapgmFldv2.data
(PID.TID 0000.0001)  preprocess = WC01
(PID.TID 0000.0001)  -> 3d control, genarr3d no.  4 is in use
(PID.TID 0000.0001)       file       = xx_kapredi
(PID.TID 0000.0001)       weight     = r2.wkaprediFldv2.data
(PID.TID 0000.0001)  preprocess = WC01
(PID.TID 0000.0001)  -> 3d control, genarr3d no.  5 is in use
(PID.TID 0000.0001)       file       = xx_diffkr
(PID.TID 0000.0001)       weight     = r2.wdiffkrFldv2.data
(PID.TID 0000.0001)  preprocess = WC01
(PID.TID 0000.0001)  -> 3d control, genarr3d no.  6 is in use
(PID.TID 0000.0001)       file       = xx_uvel
(PID.TID 0000.0001)       weight     = Uvel_weights_nonseasonal_rmsv2_areascaled.bin
(PID.TID 0000.0001)  preprocess = WC01
(PID.TID 0000.0001)  -> 3d control, genarr3d no.  7 is in use
(PID.TID 0000.0001)       file       = xx_vvel
(PID.TID 0000.0001)       weight     = Vvel_weights_nonseasonal_rmsv2_areascaled.bin
(PID.TID 0000.0001)  preprocess = WC01
(PID.TID 0000.0001) 
(PID.TID 0000.0001) // =======================================================
(PID.TID 0000.0001) // control vector configuration  >>> END <<<
(PID.TID 0000.0001) // =======================================================
(PID.TID 0000.0001) 
(PID.TID 0000.0001) ------------------------------------------------------------
(PID.TID 0000.0001) DIAGNOSTICS_SET_LEVELS: done
(PID.TID 0000.0001)  Total Nb of available Diagnostics: ndiagt=   303
(PID.TID 0000.0001)  write list of available Diagnostics to file: available_diagnostics.log
(PID.TID 0000.0001) SETDIAG: Allocate 50 x  1 Levels for Diagnostic #   122 ADVr_SLT
(PID.TID 0000.0001) SETDIAG: Allocate 50 x  1 Levels for Diagnostic #   115 ADVr_TH
(PID.TID 0000.0001) SETDIAG: Allocate  1 x  1 Levels for Diagnostic #   274 ADVxHEFF
(PID.TID 0000.0001) SETDIAG: Allocate 50 x  1 Levels for Diagnostic #   123 ADVx_SLT
(PID.TID 0000.0001) SETDIAG: Allocate  1 x  1 Levels for Diagnostic #   284 ADVxSNOW
(PID.TID 0000.0001) SETDIAG: Allocate 50 x  1 Levels for Diagnostic #   116 ADVx_TH
(PID.TID 0000.0001) SETDIAG: Allocate  1 x  1 Levels for Diagnostic #   275 ADVyHEFF
(PID.TID 0000.0001) SETDIAG: Allocate 50 x  1 Levels for Diagnostic #   124 ADVy_SLT
(PID.TID 0000.0001) SETDIAG: Allocate  1 x  1 Levels for Diagnostic #   285 ADVySNOW
(PID.TID 0000.0001) SETDIAG: Allocate 50 x  1 Levels for Diagnostic #   117 ADVy_TH
(PID.TID 0000.0001) SETDIAG: Allocate 50 x  1 Levels for Diagnostic #   125 DFrE_SLT
(PID.TID 0000.0001) SETDIAG: Allocate 50 x  1 Levels for Diagnostic #   118 DFrE_TH
(PID.TID 0000.0001) SETDIAG: Allocate 50 x  1 Levels for Diagnostic #   128 DFrI_SLT
(PID.TID 0000.0001) SETDIAG: Allocate 50 x  1 Levels for Diagnostic #   121 DFrI_TH
(PID.TID 0000.0001) SETDIAG: Allocate  1 x  1 Levels for Diagnostic #   278 DFxEHEFF
(PID.TID 0000.0001) SETDIAG: Allocate 50 x  1 Levels for Diagnostic #   126 DFxE_SLT
(PID.TID 0000.0001) SETDIAG: Allocate  1 x  1 Levels for Diagnostic #   286 DFxESNOW
(PID.TID 0000.0001) SETDIAG: Allocate 50 x  1 Levels for Diagnostic #   119 DFxE_TH
(PID.TID 0000.0001) SETDIAG: Allocate  1 x  1 Levels for Diagnostic #   279 DFyEHEFF
(PID.TID 0000.0001) SETDIAG: Allocate 50 x  1 Levels for Diagnostic #   127 DFyE_SLT
(PID.TID 0000.0001) SETDIAG: Allocate  1 x  1 Levels for Diagnostic #   287 DFyESNOW
(PID.TID 0000.0001) SETDIAG: Allocate 50 x  1 Levels for Diagnostic #   120 DFyE_TH
(PID.TID 0000.0001) SETDIAG: Allocate 50 x  1 Levels for Diagnostic #    83 DRHODR
(PID.TID 0000.0001) SETDIAG: Allocate  1 x  1 Levels for Diagnostic #    23 ETAN
(PID.TID 0000.0001) SETDIAG: Allocate  1 x  1 Levels for Diagnostic #   194 EXFaqh
(PID.TID 0000.0001) SETDIAG: Allocate  1 x  1 Levels for Diagnostic #   193 EXFatemp
(PID.TID 0000.0001) SETDIAG: Allocate  1 x  1 Levels for Diagnostic #   198 EXFempmr
(PID.TID 0000.0001) SETDIAG: Allocate  1 x  1 Levels for Diagnostic #   195 EXFevap
(PID.TID 0000.0001) SETDIAG: Allocate  1 x  1 Levels for Diagnostic #   182 EXFhl
(PID.TID 0000.0001) SETDIAG: Allocate  1 x  1 Levels for Diagnostic #   181 EXFhs
(PID.TID 0000.0001) SETDIAG: Allocate  1 x  1 Levels for Diagnostic #   185 EXFlwdn
(PID.TID 0000.0001) SETDIAG: Allocate  1 x  1 Levels for Diagnostic #   183 EXFlwnet
(PID.TID 0000.0001) SETDIAG: Allocate  1 x  1 Levels for Diagnostic #   196 EXFpreci
(PID.TID 0000.0001) SETDIAG: Allocate  1 x  1 Levels for Diagnostic #   187 EXFqnet
(PID.TID 0000.0001) SETDIAG: Allocate  1 x  1 Levels for Diagnostic #   200 EXFroff
(PID.TID 0000.0001) SETDIAG: Allocate  1 x  1 Levels for Diagnostic #   186 EXFswdn
(PID.TID 0000.0001) SETDIAG: Allocate  1 x  1 Levels for Diagnostic #   184 EXFswnet
(PID.TID 0000.0001) SETDIAG: Allocate  1 x  1 Levels for Diagnostic #   188 EXFtaux
(PID.TID 0000.0001) SETDIAG: Allocate  1 x  1 Levels for Diagnostic #   189 EXFtauy
(PID.TID 0000.0001) SETDIAG: Allocate  1 x  1 Levels for Diagnostic #   190 EXFuwind
(PID.TID 0000.0001) SETDIAG: Allocate  1 x  1 Levels for Diagnostic #   191 EXFvwind
(PID.TID 0000.0001) SETDIAG: Allocate  1 x  1 Levels for Diagnostic #   192 EXFwspee
(PID.TID 0000.0001) SETDIAG: Allocate 50 x  1 Levels for Diagnostic #   222 GM_PsiX
(PID.TID 0000.0001) SETDIAG: Allocate 50 x  1 Levels for Diagnostic #   223 GM_PsiY
(PID.TID 0000.0001) SETDIAG: Allocate  1 x  1 Levels for Diagnostic #    82 MXLDEPTH
(PID.TID 0000.0001) SETDIAG: Allocate  1 x  1 Levels for Diagnostic #    89 oceFWflx
(PID.TID 0000.0001) SETDIAG: Allocate  1 x  1 Levels for Diagnostic #    91 oceQnet
(PID.TID 0000.0001) SETDIAG: Allocate  1 x  1 Levels for Diagnostic #    92 oceQsw
(PID.TID 0000.0001) SETDIAG: Allocate  1 x  1 Levels for Diagnostic #   303 oceSPDep
(PID.TID 0000.0001) SETDIAG: Allocate  1 x  1 Levels for Diagnostic #   302 oceSPflx
(PID.TID 0000.0001) SETDIAG: Allocate 50 x  1 Levels for Diagnostic #   301 oceSPtnd
(PID.TID 0000.0001) SETDIAG: Allocate  1 x  1 Levels for Diagnostic #    85 oceTAUX
(PID.TID 0000.0001) SETDIAG: Allocate  1 x  1 Levels for Diagnostic #    86 oceTAUY
(PID.TID 0000.0001) SETDIAG: Allocate  1 x  1 Levels for Diagnostic #    76 PHIBOT
(PID.TID 0000.0001) SETDIAG: Allocate 50 x  1 Levels for Diagnostic #    74 PHIHYD
(PID.TID 0000.0001) SETDIAG: Allocate 50 x  1 Levels for Diagnostic #    81 PHIHYDcR
(PID.TID 0000.0001) SETDIAG: Allocate 50 x  1 Levels for Diagnostic #    67 RHOAnoma
(PID.TID 0000.0001) SETDIAG: Allocate 50 x  1 Levels for Diagnostic #    30 SALT
(PID.TID 0000.0001) SETDIAG: Allocate  1 x  1 Levels for Diagnostic #    99 SFLUX
(PID.TID 0000.0001) SETDIAG: Allocate  1 x  1 Levels for Diagnostic #   229 SIarea
(PID.TID 0000.0001) SETDIAG: Allocate  1 x  1 Levels for Diagnostic #   253 SIatmFW
(PID.TID 0000.0001) SETDIAG: Allocate  1 x  1 Levels for Diagnostic #   246 SIatmQnt
(PID.TID 0000.0001) SETDIAG: Allocate  1 x  1 Levels for Diagnostic #    88 sIceLoad
(PID.TID 0000.0001) SETDIAG: Allocate  1 x  1 Levels for Diagnostic #   232 SIheff
(PID.TID 0000.0001) SETDIAG: Allocate  1 x  1 Levels for Diagnostic #   234 SIhsnow
(PID.TID 0000.0001) SETDIAG: Allocate  1 x  1 Levels for Diagnostic #   254 SIsnPrcp
(PID.TID 0000.0001) SETDIAG: Allocate  1 x  1 Levels for Diagnostic #   238 SIuice
(PID.TID 0000.0001) SETDIAG: Allocate  1 x  1 Levels for Diagnostic #   239 SIvice
(PID.TID 0000.0001) SETDIAG: Allocate  1 x  1 Levels for Diagnostic #    98 TFLUX
(PID.TID 0000.0001) SETDIAG: Allocate 50 x  1 Levels for Diagnostic #    29 THETA
(PID.TID 0000.0001) SETDIAG: Allocate 50 x  1 Levels for Diagnostic #   171 Um_dPHdx
(PID.TID 0000.0001) SETDIAG: Allocate 50 x  1 Levels for Diagnostic #    33 UVEL
(PID.TID 0000.0001) SETDIAG: Allocate 50 x  1 Levels for Diagnostic #    48 UVELMASS
(PID.TID 0000.0001) SETDIAG: Allocate 50 x  1 Levels for Diagnostic #   172 Vm_dPHdy
(PID.TID 0000.0001) SETDIAG: Allocate 50 x  1 Levels for Diagnostic #    34 VVEL
(PID.TID 0000.0001) SETDIAG: Allocate 50 x  1 Levels for Diagnostic #    49 VVELMASS
(PID.TID 0000.0001) SETDIAG: Allocate 50 x  1 Levels for Diagnostic #    50 WVELMASS
(PID.TID 0000.0001) SETDIAG: Allocate  1 x  1 Levels for Diagnostic #    23 ETAN
(PID.TID 0000.0001) SETDIAG: Allocate 50 x  1 Levels for Diagnostic #    30 SALT
(PID.TID 0000.0001) SETDIAG: Allocate 50 x  1 Levels for Diagnostic #    29 THETA
(PID.TID 0000.0001) SETDIAG: Allocate  1 x  1 Levels for Diagnostic #   232 SIheff
(PID.TID 0000.0001) SETDIAG: Allocate  1 x  1 Levels for Diagnostic #   234 SIhsnow
(PID.TID 0000.0001) SETDIAG: Allocate  1 x  1 Levels for Diagnostic #    24 SSH
(PID.TID 0000.0001) SETDIAG: Allocate  1 x  1 Levels for Diagnostic #    25 SSHIBC
(PID.TID 0000.0001) SETDIAG: Allocate  1 x  1 Levels for Diagnostic #    26 SSHNOIBC
(PID.TID 0000.0001) SETDIAG: Allocate  1 x  1 Levels for Diagnostic #    77 OBP
(PID.TID 0000.0001) SETDIAG: Allocate  1 x  1 Levels for Diagnostic #    78 OBPGMAP
(PID.TID 0000.0001) SETDIAG: Allocate  1 x  1 Levels for Diagnostic #   199 EXFpress
(PID.TID 0000.0001)   space allocated for all diagnostics:    1656 levels
(PID.TID 0000.0001)   set mate pointer for diag #   274  ADVxHEFF , Parms: UU      M1 , mate:   275
(PID.TID 0000.0001)   set mate pointer for diag #   123  ADVx_SLT , Parms: UU      MR , mate:   124
(PID.TID 0000.0001)   set mate pointer for diag #   284  ADVxSNOW , Parms: UU      M1 , mate:   285
(PID.TID 0000.0001)   set mate pointer for diag #   116  ADVx_TH  , Parms: UU      MR , mate:   117
(PID.TID 0000.0001)   set mate pointer for diag #   275  ADVyHEFF , Parms: VV      M1 , mate:   274
(PID.TID 0000.0001)   set mate pointer for diag #   124  ADVy_SLT , Parms: VV      MR , mate:   123
(PID.TID 0000.0001)   set mate pointer for diag #   285  ADVySNOW , Parms: VV      M1 , mate:   284
(PID.TID 0000.0001)   set mate pointer for diag #   117  ADVy_TH  , Parms: VV      MR , mate:   116
(PID.TID 0000.0001)   set mate pointer for diag #   278  DFxEHEFF , Parms: UU      M1 , mate:   279
(PID.TID 0000.0001)   set mate pointer for diag #   126  DFxE_SLT , Parms: UU      MR , mate:   127
(PID.TID 0000.0001)   set mate pointer for diag #   286  DFxESNOW , Parms: UU      M1 , mate:   287
(PID.TID 0000.0001)   set mate pointer for diag #   119  DFxE_TH  , Parms: UU      MR , mate:   120
(PID.TID 0000.0001)   set mate pointer for diag #   279  DFyEHEFF , Parms: VV      M1 , mate:   278
(PID.TID 0000.0001)   set mate pointer for diag #   127  DFyE_SLT , Parms: VV      MR , mate:   126
(PID.TID 0000.0001)   set mate pointer for diag #   287  DFyESNOW , Parms: VV      M1 , mate:   286
(PID.TID 0000.0001)   set mate pointer for diag #   120  DFyE_TH  , Parms: VV      MR , mate:   119
(PID.TID 0000.0001)   set mate pointer for diag #   222  GM_PsiX  , Parms: UU      LR , mate:   223
(PID.TID 0000.0001)   set mate pointer for diag #   223  GM_PsiY  , Parms: VV      LR , mate:   222
(PID.TID 0000.0001)   set mate pointer for diag #    85  oceTAUX  , Parms: UU      U1 , mate:    86
(PID.TID 0000.0001)   set mate pointer for diag #    86  oceTAUY  , Parms: VV      U1 , mate:    85
(PID.TID 0000.0001)   set mate pointer for diag #   238  SIuice   , Parms: UU      M1 , mate:   239
(PID.TID 0000.0001)   set mate pointer for diag #   239  SIvice   , Parms: VV      M1 , mate:   238
(PID.TID 0000.0001)   set mate pointer for diag #   171  Um_dPHdx , Parms: UUR     MR , mate:   172
(PID.TID 0000.0001)   set mate pointer for diag #    33  UVEL     , Parms: UUR     MR , mate:    34
(PID.TID 0000.0001)   set mate pointer for diag #    48  UVELMASS , Parms: UUr     MR , mate:    49
(PID.TID 0000.0001)   set mate pointer for diag #   172  Vm_dPHdy , Parms: VVR     MR , mate:   171
(PID.TID 0000.0001)   set mate pointer for diag #    34  VVEL     , Parms: VVR     MR , mate:    33
(PID.TID 0000.0001)   set mate pointer for diag #    49  VVELMASS , Parms: VVr     MR , mate:    48
(PID.TID 0000.0001) DIAGNOSTICS_SET_POINTERS: Set levels for Outp.Stream: diags/ADVr_SLT_mon_mean/ADVr_SLT_mon_mean
(PID.TID 0000.0001)  Levels:       1.   2.   3.   4.   5.   6.   7.   8.   9.  10.  11.  12.  13.  14.  15.  16.  17.  18.  19.  20.
(PID.TID 0000.0001)  Levels:      21.  22.  23.  24.  25.  26.  27.  28.  29.  30.  31.  32.  33.  34.  35.  36.  37.  38.  39.  40.
(PID.TID 0000.0001)  Levels:      41.  42.  43.  44.  45.  46.  47.  48.  49.  50.
(PID.TID 0000.0001) DIAGNOSTICS_SET_POINTERS: Set levels for Outp.Stream: diags/ADVr_TH_mon_mean/ADVr_TH_mon_mean
(PID.TID 0000.0001)  Levels:       1.   2.   3.   4.   5.   6.   7.   8.   9.  10.  11.  12.  13.  14.  15.  16.  17.  18.  19.  20.
(PID.TID 0000.0001)  Levels:      21.  22.  23.  24.  25.  26.  27.  28.  29.  30.  31.  32.  33.  34.  35.  36.  37.  38.  39.  40.
(PID.TID 0000.0001)  Levels:      41.  42.  43.  44.  45.  46.  47.  48.  49.  50.
(PID.TID 0000.0001) DIAGNOSTICS_SET_POINTERS: Set levels for Outp.Stream: diags/ADVxHEFF_mon_mean/ADVxHEFF_mon_mean
(PID.TID 0000.0001)  Levels:       1.
(PID.TID 0000.0001) DIAGNOSTICS_SET_POINTERS: Set levels for Outp.Stream: diags/ADVx_SLT_mon_mean/ADVx_SLT_mon_mean
(PID.TID 0000.0001)  Levels:       1.   2.   3.   4.   5.   6.   7.   8.   9.  10.  11.  12.  13.  14.  15.  16.  17.  18.  19.  20.
(PID.TID 0000.0001)  Levels:      21.  22.  23.  24.  25.  26.  27.  28.  29.  30.  31.  32.  33.  34.  35.  36.  37.  38.  39.  40.
(PID.TID 0000.0001)  Levels:      41.  42.  43.  44.  45.  46.  47.  48.  49.  50.
(PID.TID 0000.0001) DIAGNOSTICS_SET_POINTERS: Set levels for Outp.Stream: diags/ADVxSNOW_mon_mean/ADVxSNOW_mon_mean
(PID.TID 0000.0001)  Levels:       1.
(PID.TID 0000.0001) DIAGNOSTICS_SET_POINTERS: Set levels for Outp.Stream: diags/ADVx_TH_mon_mean/ADVx_TH_mon_mean
(PID.TID 0000.0001)  Levels:       1.   2.   3.   4.   5.   6.   7.   8.   9.  10.  11.  12.  13.  14.  15.  16.  17.  18.  19.  20.
(PID.TID 0000.0001)  Levels:      21.  22.  23.  24.  25.  26.  27.  28.  29.  30.  31.  32.  33.  34.  35.  36.  37.  38.  39.  40.
(PID.TID 0000.0001)  Levels:      41.  42.  43.  44.  45.  46.  47.  48.  49.  50.
(PID.TID 0000.0001) DIAGNOSTICS_SET_POINTERS: Set levels for Outp.Stream: diags/ADVyHEFF_mon_mean/ADVyHEFF_mon_mean
(PID.TID 0000.0001)  Levels:       1.
(PID.TID 0000.0001) DIAGNOSTICS_SET_POINTERS: Set levels for Outp.Stream: diags/ADVy_SLT_mon_mean/ADVy_SLT_mon_mean
(PID.TID 0000.0001)  Levels:       1.   2.   3.   4.   5.   6.   7.   8.   9.  10.  11.  12.  13.  14.  15.  16.  17.  18.  19.  20.
(PID.TID 0000.0001)  Levels:      21.  22.  23.  24.  25.  26.  27.  28.  29.  30.  31.  32.  33.  34.  35.  36.  37.  38.  39.  40.
(PID.TID 0000.0001)  Levels:      41.  42.  43.  44.  45.  46.  47.  48.  49.  50.
(PID.TID 0000.0001) DIAGNOSTICS_SET_POINTERS: Set levels for Outp.Stream: diags/ADVySNOW_mon_mean/ADVySNOW_mon_mean
(PID.TID 0000.0001)  Levels:       1.
(PID.TID 0000.0001) DIAGNOSTICS_SET_POINTERS: Set levels for Outp.Stream: diags/ADVy_TH_mon_mean/ADVy_TH_mon_mean
(PID.TID 0000.0001)  Levels:       1.   2.   3.   4.   5.   6.   7.   8.   9.  10.  11.  12.  13.  14.  15.  16.  17.  18.  19.  20.
(PID.TID 0000.0001)  Levels:      21.  22.  23.  24.  25.  26.  27.  28.  29.  30.  31.  32.  33.  34.  35.  36.  37.  38.  39.  40.
(PID.TID 0000.0001)  Levels:      41.  42.  43.  44.  45.  46.  47.  48.  49.  50.
(PID.TID 0000.0001) DIAGNOSTICS_SET_POINTERS: Set levels for Outp.Stream: diags/DFrE_SLT_mon_mean/DFrE_SLT_mon_mean
(PID.TID 0000.0001)  Levels:       1.   2.   3.   4.   5.   6.   7.   8.   9.  10.  11.  12.  13.  14.  15.  16.  17.  18.  19.  20.
(PID.TID 0000.0001)  Levels:      21.  22.  23.  24.  25.  26.  27.  28.  29.  30.  31.  32.  33.  34.  35.  36.  37.  38.  39.  40.
(PID.TID 0000.0001)  Levels:      41.  42.  43.  44.  45.  46.  47.  48.  49.  50.
(PID.TID 0000.0001) DIAGNOSTICS_SET_POINTERS: Set levels for Outp.Stream: diags/DFrE_TH_mon_mean/DFrE_TH_mon_mean
(PID.TID 0000.0001)  Levels:       1.   2.   3.   4.   5.   6.   7.   8.   9.  10.  11.  12.  13.  14.  15.  16.  17.  18.  19.  20.
(PID.TID 0000.0001)  Levels:      21.  22.  23.  24.  25.  26.  27.  28.  29.  30.  31.  32.  33.  34.  35.  36.  37.  38.  39.  40.
(PID.TID 0000.0001)  Levels:      41.  42.  43.  44.  45.  46.  47.  48.  49.  50.
(PID.TID 0000.0001) DIAGNOSTICS_SET_POINTERS: Set levels for Outp.Stream: diags/DFrI_SLT_mon_mean/DFrI_SLT_mon_mean
(PID.TID 0000.0001)  Levels:       1.   2.   3.   4.   5.   6.   7.   8.   9.  10.  11.  12.  13.  14.  15.  16.  17.  18.  19.  20.
(PID.TID 0000.0001)  Levels:      21.  22.  23.  24.  25.  26.  27.  28.  29.  30.  31.  32.  33.  34.  35.  36.  37.  38.  39.  40.
(PID.TID 0000.0001)  Levels:      41.  42.  43.  44.  45.  46.  47.  48.  49.  50.
(PID.TID 0000.0001) DIAGNOSTICS_SET_POINTERS: Set levels for Outp.Stream: diags/DFrI_TH_mon_mean/DFrI_TH_mon_mean
(PID.TID 0000.0001)  Levels:       1.   2.   3.   4.   5.   6.   7.   8.   9.  10.  11.  12.  13.  14.  15.  16.  17.  18.  19.  20.
(PID.TID 0000.0001)  Levels:      21.  22.  23.  24.  25.  26.  27.  28.  29.  30.  31.  32.  33.  34.  35.  36.  37.  38.  39.  40.
(PID.TID 0000.0001)  Levels:      41.  42.  43.  44.  45.  46.  47.  48.  49.  50.
(PID.TID 0000.0001) DIAGNOSTICS_SET_POINTERS: Set levels for Outp.Stream: diags/DFxEHEFF_mon_mean/DFxEHEFF_mon_mean
(PID.TID 0000.0001)  Levels:       1.
(PID.TID 0000.0001) DIAGNOSTICS_SET_POINTERS: Set levels for Outp.Stream: diags/DFxE_SLT_mon_mean/DFxE_SLT_mon_mean
(PID.TID 0000.0001)  Levels:       1.   2.   3.   4.   5.   6.   7.   8.   9.  10.  11.  12.  13.  14.  15.  16.  17.  18.  19.  20.
(PID.TID 0000.0001)  Levels:      21.  22.  23.  24.  25.  26.  27.  28.  29.  30.  31.  32.  33.  34.  35.  36.  37.  38.  39.  40.
(PID.TID 0000.0001)  Levels:      41.  42.  43.  44.  45.  46.  47.  48.  49.  50.
(PID.TID 0000.0001) DIAGNOSTICS_SET_POINTERS: Set levels for Outp.Stream: diags/DFxESNOW_mon_mean/DFxESNOW_mon_mean
(PID.TID 0000.0001)  Levels:       1.
(PID.TID 0000.0001) DIAGNOSTICS_SET_POINTERS: Set levels for Outp.Stream: diags/DFxE_TH_mon_mean/DFxE_TH_mon_mean
(PID.TID 0000.0001)  Levels:       1.   2.   3.   4.   5.   6.   7.   8.   9.  10.  11.  12.  13.  14.  15.  16.  17.  18.  19.  20.
(PID.TID 0000.0001)  Levels:      21.  22.  23.  24.  25.  26.  27.  28.  29.  30.  31.  32.  33.  34.  35.  36.  37.  38.  39.  40.
(PID.TID 0000.0001)  Levels:      41.  42.  43.  44.  45.  46.  47.  48.  49.  50.
(PID.TID 0000.0001) DIAGNOSTICS_SET_POINTERS: Set levels for Outp.Stream: diags/DFyEHEFF_mon_mean/DFyEHEFF_mon_mean
(PID.TID 0000.0001)  Levels:       1.
(PID.TID 0000.0001) DIAGNOSTICS_SET_POINTERS: Set levels for Outp.Stream: diags/DFyE_SLT_mon_mean/DFyE_SLT_mon_mean
(PID.TID 0000.0001)  Levels:       1.   2.   3.   4.   5.   6.   7.   8.   9.  10.  11.  12.  13.  14.  15.  16.  17.  18.  19.  20.
(PID.TID 0000.0001)  Levels:      21.  22.  23.  24.  25.  26.  27.  28.  29.  30.  31.  32.  33.  34.  35.  36.  37.  38.  39.  40.
(PID.TID 0000.0001)  Levels:      41.  42.  43.  44.  45.  46.  47.  48.  49.  50.
(PID.TID 0000.0001) DIAGNOSTICS_SET_POINTERS: Set levels for Outp.Stream: diags/DFyESNOW_mon_mean/DFyESNOW_mon_mean
(PID.TID 0000.0001)  Levels:       1.
(PID.TID 0000.0001) DIAGNOSTICS_SET_POINTERS: Set levels for Outp.Stream: diags/DFyE_TH_mon_mean/DFyE_TH_mon_mean
(PID.TID 0000.0001)  Levels:       1.   2.   3.   4.   5.   6.   7.   8.   9.  10.  11.  12.  13.  14.  15.  16.  17.  18.  19.  20.
(PID.TID 0000.0001)  Levels:      21.  22.  23.  24.  25.  26.  27.  28.  29.  30.  31.  32.  33.  34.  35.  36.  37.  38.  39.  40.
(PID.TID 0000.0001)  Levels:      41.  42.  43.  44.  45.  46.  47.  48.  49.  50.
(PID.TID 0000.0001) DIAGNOSTICS_SET_POINTERS: Set levels for Outp.Stream: diags/DRHODR_mon_mean/DRHODR_mon_mean
(PID.TID 0000.0001)  Levels:       1.   2.   3.   4.   5.   6.   7.   8.   9.  10.  11.  12.  13.  14.  15.  16.  17.  18.  19.  20.
(PID.TID 0000.0001)  Levels:      21.  22.  23.  24.  25.  26.  27.  28.  29.  30.  31.  32.  33.  34.  35.  36.  37.  38.  39.  40.
(PID.TID 0000.0001)  Levels:      41.  42.  43.  44.  45.  46.  47.  48.  49.  50.
(PID.TID 0000.0001) DIAGNOSTICS_SET_POINTERS: Set levels for Outp.Stream: diags/ETAN_mon_mean/ETAN_mon_mean
(PID.TID 0000.0001)  Levels:       1.
(PID.TID 0000.0001) DIAGNOSTICS_SET_POINTERS: Set levels for Outp.Stream: diags/EXFaqh_mon_mean/EXFaqh_mon_mean
(PID.TID 0000.0001)  Levels:       1.
(PID.TID 0000.0001) DIAGNOSTICS_SET_POINTERS: Set levels for Outp.Stream: diags/EXFatemp_mon_mean/EXFatemp_mon_mean
(PID.TID 0000.0001)  Levels:       1.
(PID.TID 0000.0001) DIAGNOSTICS_SET_POINTERS: Set levels for Outp.Stream: diags/EXFempmr_mon_mean/EXFempmr_mon_mean
(PID.TID 0000.0001)  Levels:       1.
(PID.TID 0000.0001) DIAGNOSTICS_SET_POINTERS: Set levels for Outp.Stream: diags/EXFevap_mon_mean/EXFevap_mon_mean
(PID.TID 0000.0001)  Levels:       1.
(PID.TID 0000.0001) DIAGNOSTICS_SET_POINTERS: Set levels for Outp.Stream: diags/EXFhl_mon_mean/EXFhl_mon_mean
(PID.TID 0000.0001)  Levels:       1.
(PID.TID 0000.0001) DIAGNOSTICS_SET_POINTERS: Set levels for Outp.Stream: diags/EXFhs_mon_mean/EXFhs_mon_mean
(PID.TID 0000.0001)  Levels:       1.
(PID.TID 0000.0001) DIAGNOSTICS_SET_POINTERS: Set levels for Outp.Stream: diags/EXFlwdn_mon_mean/EXFlwdn_mon_mean
(PID.TID 0000.0001)  Levels:       1.
(PID.TID 0000.0001) DIAGNOSTICS_SET_POINTERS: Set levels for Outp.Stream: diags/EXFlwnet_mon_mean/EXFlwnet_mon_mean
(PID.TID 0000.0001)  Levels:       1.
(PID.TID 0000.0001) DIAGNOSTICS_SET_POINTERS: Set levels for Outp.Stream: diags/EXFpreci_mon_mean/EXFpreci_mon_mean
(PID.TID 0000.0001)  Levels:       1.
(PID.TID 0000.0001) DIAGNOSTICS_SET_POINTERS: Set levels for Outp.Stream: diags/EXFqnet_mon_mean/EXFqnet_mon_mean
(PID.TID 0000.0001)  Levels:       1.
(PID.TID 0000.0001) DIAGNOSTICS_SET_POINTERS: Set levels for Outp.Stream: diags/EXFroff_mon_mean/EXFroff_mon_mean
(PID.TID 0000.0001)  Levels:       1.
(PID.TID 0000.0001) DIAGNOSTICS_SET_POINTERS: Set levels for Outp.Stream: diags/EXFswdn_mon_mean/EXFswdn_mon_mean
(PID.TID 0000.0001)  Levels:       1.
(PID.TID 0000.0001) DIAGNOSTICS_SET_POINTERS: Set levels for Outp.Stream: diags/EXFswnet_mon_mean/EXFswnet_mon_mean
(PID.TID 0000.0001)  Levels:       1.
(PID.TID 0000.0001) DIAGNOSTICS_SET_POINTERS: Set levels for Outp.Stream: diags/EXFtaux_mon_mean/EXFtaux_mon_mean
(PID.TID 0000.0001)  Levels:       1.
(PID.TID 0000.0001) DIAGNOSTICS_SET_POINTERS: Set levels for Outp.Stream: diags/EXFtauy_mon_mean/EXFtauy_mon_mean
(PID.TID 0000.0001)  Levels:       1.
(PID.TID 0000.0001) DIAGNOSTICS_SET_POINTERS: Set levels for Outp.Stream: diags/EXFuwind_mon_mean/EXFuwind_mon_mean
(PID.TID 0000.0001)  Levels:       1.
(PID.TID 0000.0001) DIAGNOSTICS_SET_POINTERS: Set levels for Outp.Stream: diags/EXFvwind_mon_mean/EXFvwind_mon_mean
(PID.TID 0000.0001)  Levels:       1.
(PID.TID 0000.0001) DIAGNOSTICS_SET_POINTERS: Set levels for Outp.Stream: diags/EXFwspee_mon_mean/EXFwspee_mon_mean
(PID.TID 0000.0001)  Levels:       1.
(PID.TID 0000.0001) DIAGNOSTICS_SET_POINTERS: Set levels for Outp.Stream: diags/GM_PsiX_mon_mean/GM_PsiX_mon_mean
(PID.TID 0000.0001)  Levels:       1.   2.   3.   4.   5.   6.   7.   8.   9.  10.  11.  12.  13.  14.  15.  16.  17.  18.  19.  20.
(PID.TID 0000.0001)  Levels:      21.  22.  23.  24.  25.  26.  27.  28.  29.  30.  31.  32.  33.  34.  35.  36.  37.  38.  39.  40.
(PID.TID 0000.0001)  Levels:      41.  42.  43.  44.  45.  46.  47.  48.  49.  50.
(PID.TID 0000.0001) DIAGNOSTICS_SET_POINTERS: Set levels for Outp.Stream: diags/GM_PsiY_mon_mean/GM_PsiY_mon_mean
(PID.TID 0000.0001)  Levels:       1.   2.   3.   4.   5.   6.   7.   8.   9.  10.  11.  12.  13.  14.  15.  16.  17.  18.  19.  20.
(PID.TID 0000.0001)  Levels:      21.  22.  23.  24.  25.  26.  27.  28.  29.  30.  31.  32.  33.  34.  35.  36.  37.  38.  39.  40.
(PID.TID 0000.0001)  Levels:      41.  42.  43.  44.  45.  46.  47.  48.  49.  50.
(PID.TID 0000.0001) DIAGNOSTICS_SET_POINTERS: Set levels for Outp.Stream: diags/MXLDEPTH_mon_mean/MXLDEPTH_mon_mean
(PID.TID 0000.0001)  Levels:       1.
(PID.TID 0000.0001) DIAGNOSTICS_SET_POINTERS: Set levels for Outp.Stream: diags/oceFWflx_mon_mean/oceFWflx_mon_mean
(PID.TID 0000.0001)  Levels:       1.
(PID.TID 0000.0001) DIAGNOSTICS_SET_POINTERS: Set levels for Outp.Stream: diags/oceQnet_mon_mean/oceQnet_mon_mean
(PID.TID 0000.0001)  Levels:       1.
(PID.TID 0000.0001) DIAGNOSTICS_SET_POINTERS: Set levels for Outp.Stream: diags/oceQsw_mon_mean/oceQsw_mon_mean
(PID.TID 0000.0001)  Levels:       1.
(PID.TID 0000.0001) DIAGNOSTICS_SET_POINTERS: Set levels for Outp.Stream: diags/oceSPDep_mon_mean/oceSPDep_mon_mean
(PID.TID 0000.0001)  Levels:       1.
(PID.TID 0000.0001) DIAGNOSTICS_SET_POINTERS: Set levels for Outp.Stream: diags/oceSPflx_mon_mean/oceSPflx_mon_mean
(PID.TID 0000.0001)  Levels:       1.
(PID.TID 0000.0001) DIAGNOSTICS_SET_POINTERS: Set levels for Outp.Stream: diags/oceSPtnd_mon_mean/oceSPtnd_mon_mean
(PID.TID 0000.0001)  Levels:       1.   2.   3.   4.   5.   6.   7.   8.   9.  10.  11.  12.  13.  14.  15.  16.  17.  18.  19.  20.
(PID.TID 0000.0001)  Levels:      21.  22.  23.  24.  25.  26.  27.  28.  29.  30.  31.  32.  33.  34.  35.  36.  37.  38.  39.  40.
(PID.TID 0000.0001)  Levels:      41.  42.  43.  44.  45.  46.  47.  48.  49.  50.
(PID.TID 0000.0001) DIAGNOSTICS_SET_POINTERS: Set levels for Outp.Stream: diags/oceTAUX_mon_mean/oceTAUX_mon_mean
(PID.TID 0000.0001)  Levels:       1.
(PID.TID 0000.0001) DIAGNOSTICS_SET_POINTERS: Set levels for Outp.Stream: diags/oceTAUY_mon_mean/oceTAUY_mon_mean
(PID.TID 0000.0001)  Levels:       1.
(PID.TID 0000.0001) DIAGNOSTICS_SET_POINTERS: Set levels for Outp.Stream: diags/PHIBOT_mon_mean/PHIBOT_mon_mean
(PID.TID 0000.0001)  Levels:       1.
(PID.TID 0000.0001) DIAGNOSTICS_SET_POINTERS: Set levels for Outp.Stream: diags/PHIHYD_mon_mean/PHIHYD_mon_mean
(PID.TID 0000.0001)  Levels:       1.   2.   3.   4.   5.   6.   7.   8.   9.  10.  11.  12.  13.  14.  15.  16.  17.  18.  19.  20.
(PID.TID 0000.0001)  Levels:      21.  22.  23.  24.  25.  26.  27.  28.  29.  30.  31.  32.  33.  34.  35.  36.  37.  38.  39.  40.
(PID.TID 0000.0001)  Levels:      41.  42.  43.  44.  45.  46.  47.  48.  49.  50.
(PID.TID 0000.0001) DIAGNOSTICS_SET_POINTERS: Set levels for Outp.Stream: diags/PHIHYDcR_mon_mean/PHIHYDcR_mon_mean
(PID.TID 0000.0001)  Levels:       1.   2.   3.   4.   5.   6.   7.   8.   9.  10.  11.  12.  13.  14.  15.  16.  17.  18.  19.  20.
(PID.TID 0000.0001)  Levels:      21.  22.  23.  24.  25.  26.  27.  28.  29.  30.  31.  32.  33.  34.  35.  36.  37.  38.  39.  40.
(PID.TID 0000.0001)  Levels:      41.  42.  43.  44.  45.  46.  47.  48.  49.  50.
(PID.TID 0000.0001) DIAGNOSTICS_SET_POINTERS: Set levels for Outp.Stream: diags/RHOAnoma_mon_mean/RHOAnoma_mon_mean
(PID.TID 0000.0001)  Levels:       1.   2.   3.   4.   5.   6.   7.   8.   9.  10.  11.  12.  13.  14.  15.  16.  17.  18.  19.  20.
(PID.TID 0000.0001)  Levels:      21.  22.  23.  24.  25.  26.  27.  28.  29.  30.  31.  32.  33.  34.  35.  36.  37.  38.  39.  40.
(PID.TID 0000.0001)  Levels:      41.  42.  43.  44.  45.  46.  47.  48.  49.  50.
(PID.TID 0000.0001) DIAGNOSTICS_SET_POINTERS: Set levels for Outp.Stream: diags/SALT_mon_mean/SALT_mon_mean
(PID.TID 0000.0001)  Levels:       1.   2.   3.   4.   5.   6.   7.   8.   9.  10.  11.  12.  13.  14.  15.  16.  17.  18.  19.  20.
(PID.TID 0000.0001)  Levels:      21.  22.  23.  24.  25.  26.  27.  28.  29.  30.  31.  32.  33.  34.  35.  36.  37.  38.  39.  40.
(PID.TID 0000.0001)  Levels:      41.  42.  43.  44.  45.  46.  47.  48.  49.  50.
(PID.TID 0000.0001) DIAGNOSTICS_SET_POINTERS: Set levels for Outp.Stream: diags/SFLUX_mon_mean/SFLUX_mon_mean
(PID.TID 0000.0001)  Levels:       1.
(PID.TID 0000.0001) DIAGNOSTICS_SET_POINTERS: Set levels for Outp.Stream: diags/SIarea_mon_mean/SIarea_mon_mean
(PID.TID 0000.0001)  Levels:       1.
(PID.TID 0000.0001) DIAGNOSTICS_SET_POINTERS: Set levels for Outp.Stream: diags/SIatmFW_mon_mean/SIatmFW_mon_mean
(PID.TID 0000.0001)  Levels:       1.
(PID.TID 0000.0001) DIAGNOSTICS_SET_POINTERS: Set levels for Outp.Stream: diags/SIatmQnt_mon_mean/SIatmQnt_mon_mean
(PID.TID 0000.0001)  Levels:       1.
(PID.TID 0000.0001) DIAGNOSTICS_SET_POINTERS: Set levels for Outp.Stream: diags/sIceLoad_mon_mean/sIceLoad_mon_mean
(PID.TID 0000.0001)  Levels:       1.
(PID.TID 0000.0001) DIAGNOSTICS_SET_POINTERS: Set levels for Outp.Stream: diags/SIheff_mon_mean/SIheff_mon_mean
(PID.TID 0000.0001)  Levels:       1.
(PID.TID 0000.0001) DIAGNOSTICS_SET_POINTERS: Set levels for Outp.Stream: diags/SIhsnow_mon_mean/SIhsnow_mon_mean
(PID.TID 0000.0001)  Levels:       1.
(PID.TID 0000.0001) DIAGNOSTICS_SET_POINTERS: Set levels for Outp.Stream: diags/SIsnPrcp_mon_mean/SIsnPrcp_mon_mean
(PID.TID 0000.0001)  Levels:       1.
(PID.TID 0000.0001) DIAGNOSTICS_SET_POINTERS: Set levels for Outp.Stream: diags/SIuice_mon_mean/SIuice_mon_mean
(PID.TID 0000.0001)  Levels:       1.
(PID.TID 0000.0001) DIAGNOSTICS_SET_POINTERS: Set levels for Outp.Stream: diags/SIvice_mon_mean/SIvice_mon_mean
(PID.TID 0000.0001)  Levels:       1.
(PID.TID 0000.0001) DIAGNOSTICS_SET_POINTERS: Set levels for Outp.Stream: diags/TFLUX_mon_mean/TFLUX_mon_mean
(PID.TID 0000.0001)  Levels:       1.
(PID.TID 0000.0001) DIAGNOSTICS_SET_POINTERS: Set levels for Outp.Stream: diags/THETA_mon_mean/THETA_mon_mean
(PID.TID 0000.0001)  Levels:       1.   2.   3.   4.   5.   6.   7.   8.   9.  10.  11.  12.  13.  14.  15.  16.  17.  18.  19.  20.
(PID.TID 0000.0001)  Levels:      21.  22.  23.  24.  25.  26.  27.  28.  29.  30.  31.  32.  33.  34.  35.  36.  37.  38.  39.  40.
(PID.TID 0000.0001)  Levels:      41.  42.  43.  44.  45.  46.  47.  48.  49.  50.
(PID.TID 0000.0001) DIAGNOSTICS_SET_POINTERS: Set levels for Outp.Stream: diags/Um_dPHdx_mon_mean/Um_dPHdx_mon_mean
(PID.TID 0000.0001)  Levels:       1.   2.   3.   4.   5.   6.   7.   8.   9.  10.  11.  12.  13.  14.  15.  16.  17.  18.  19.  20.
(PID.TID 0000.0001)  Levels:      21.  22.  23.  24.  25.  26.  27.  28.  29.  30.  31.  32.  33.  34.  35.  36.  37.  38.  39.  40.
(PID.TID 0000.0001)  Levels:      41.  42.  43.  44.  45.  46.  47.  48.  49.  50.
(PID.TID 0000.0001) DIAGNOSTICS_SET_POINTERS: Set levels for Outp.Stream: diags/UVEL_mon_mean/UVEL_mon_mean
(PID.TID 0000.0001)  Levels:       1.   2.   3.   4.   5.   6.   7.   8.   9.  10.  11.  12.  13.  14.  15.  16.  17.  18.  19.  20.
(PID.TID 0000.0001)  Levels:      21.  22.  23.  24.  25.  26.  27.  28.  29.  30.  31.  32.  33.  34.  35.  36.  37.  38.  39.  40.
(PID.TID 0000.0001)  Levels:      41.  42.  43.  44.  45.  46.  47.  48.  49.  50.
(PID.TID 0000.0001) DIAGNOSTICS_SET_POINTERS: Set levels for Outp.Stream: diags/UVELMASS_mon_mean/UVELMASS_mon_mean
(PID.TID 0000.0001)  Levels:       1.   2.   3.   4.   5.   6.   7.   8.   9.  10.  11.  12.  13.  14.  15.  16.  17.  18.  19.  20.
(PID.TID 0000.0001)  Levels:      21.  22.  23.  24.  25.  26.  27.  28.  29.  30.  31.  32.  33.  34.  35.  36.  37.  38.  39.  40.
(PID.TID 0000.0001)  Levels:      41.  42.  43.  44.  45.  46.  47.  48.  49.  50.
(PID.TID 0000.0001) DIAGNOSTICS_SET_POINTERS: Set levels for Outp.Stream: diags/Vm_dPHdy_mon_mean/Vm_dPHdy_mon_mean
(PID.TID 0000.0001)  Levels:       1.   2.   3.   4.   5.   6.   7.   8.   9.  10.  11.  12.  13.  14.  15.  16.  17.  18.  19.  20.
(PID.TID 0000.0001)  Levels:      21.  22.  23.  24.  25.  26.  27.  28.  29.  30.  31.  32.  33.  34.  35.  36.  37.  38.  39.  40.
(PID.TID 0000.0001)  Levels:      41.  42.  43.  44.  45.  46.  47.  48.  49.  50.
(PID.TID 0000.0001) DIAGNOSTICS_SET_POINTERS: Set levels for Outp.Stream: diags/VVEL_mon_mean/VVEL_mon_mean
(PID.TID 0000.0001)  Levels:       1.   2.   3.   4.   5.   6.   7.   8.   9.  10.  11.  12.  13.  14.  15.  16.  17.  18.  19.  20.
(PID.TID 0000.0001)  Levels:      21.  22.  23.  24.  25.  26.  27.  28.  29.  30.  31.  32.  33.  34.  35.  36.  37.  38.  39.  40.
(PID.TID 0000.0001)  Levels:      41.  42.  43.  44.  45.  46.  47.  48.  49.  50.
(PID.TID 0000.0001) DIAGNOSTICS_SET_POINTERS: Set levels for Outp.Stream: diags/VVELMASS_mon_mean/VVELMASS_mon_mean
(PID.TID 0000.0001)  Levels:       1.   2.   3.   4.   5.   6.   7.   8.   9.  10.  11.  12.  13.  14.  15.  16.  17.  18.  19.  20.
(PID.TID 0000.0001)  Levels:      21.  22.  23.  24.  25.  26.  27.  28.  29.  30.  31.  32.  33.  34.  35.  36.  37.  38.  39.  40.
(PID.TID 0000.0001)  Levels:      41.  42.  43.  44.  45.  46.  47.  48.  49.  50.
(PID.TID 0000.0001) DIAGNOSTICS_SET_POINTERS: Set levels for Outp.Stream: diags/WVELMASS_mon_mean/WVELMASS_mon_mean
(PID.TID 0000.0001)  Levels:       1.   2.   3.   4.   5.   6.   7.   8.   9.  10.  11.  12.  13.  14.  15.  16.  17.  18.  19.  20.
(PID.TID 0000.0001)  Levels:      21.  22.  23.  24.  25.  26.  27.  28.  29.  30.  31.  32.  33.  34.  35.  36.  37.  38.  39.  40.
(PID.TID 0000.0001)  Levels:      41.  42.  43.  44.  45.  46.  47.  48.  49.  50.
(PID.TID 0000.0001) DIAGNOSTICS_SET_POINTERS: Set levels for Outp.Stream: diags/ETAN_mon_inst/ETAN_mon_inst
(PID.TID 0000.0001)  Levels:       1.
(PID.TID 0000.0001) DIAGNOSTICS_SET_POINTERS: Set levels for Outp.Stream: diags/SALT_mon_inst/SALT_mon_inst
(PID.TID 0000.0001)  Levels:       1.   2.   3.   4.   5.   6.   7.   8.   9.  10.  11.  12.  13.  14.  15.  16.  17.  18.  19.  20.
(PID.TID 0000.0001)  Levels:      21.  22.  23.  24.  25.  26.  27.  28.  29.  30.  31.  32.  33.  34.  35.  36.  37.  38.  39.  40.
(PID.TID 0000.0001)  Levels:      41.  42.  43.  44.  45.  46.  47.  48.  49.  50.
(PID.TID 0000.0001) DIAGNOSTICS_SET_POINTERS: Set levels for Outp.Stream: diags/THETA_mon_inst/THETA_mon_inst
(PID.TID 0000.0001)  Levels:       1.   2.   3.   4.   5.   6.   7.   8.   9.  10.  11.  12.  13.  14.  15.  16.  17.  18.  19.  20.
(PID.TID 0000.0001)  Levels:      21.  22.  23.  24.  25.  26.  27.  28.  29.  30.  31.  32.  33.  34.  35.  36.  37.  38.  39.  40.
(PID.TID 0000.0001)  Levels:      41.  42.  43.  44.  45.  46.  47.  48.  49.  50.
(PID.TID 0000.0001) DIAGNOSTICS_SET_POINTERS: Set levels for Outp.Stream: diags/SIheff_mon_inst/SIheff_mon_inst
(PID.TID 0000.0001)  Levels:       1.
(PID.TID 0000.0001) DIAGNOSTICS_SET_POINTERS: Set levels for Outp.Stream: diags/SIhsnow_mon_inst/SIhsnow_mon_inst
(PID.TID 0000.0001)  Levels:       1.
(PID.TID 0000.0001) DIAGNOSTICS_SET_POINTERS: Set levels for Outp.Stream: diags/SSH_mon_mean/SSH_mon_mean
(PID.TID 0000.0001)  Levels:       1.
(PID.TID 0000.0001) DIAGNOSTICS_SET_POINTERS: Set levels for Outp.Stream: diags/SSHIBC_mon_mean/SSHIBC_mon_mean
(PID.TID 0000.0001)  Levels:       1.
(PID.TID 0000.0001) DIAGNOSTICS_SET_POINTERS: Set levels for Outp.Stream: diags/SSHNOIBC_mon_mean/SSHNOIBC_mon_mean
(PID.TID 0000.0001)  Levels:       1.
(PID.TID 0000.0001) DIAGNOSTICS_SET_POINTERS: Set levels for Outp.Stream: diags/OBP_mon_mean/OBP_mon_mean
(PID.TID 0000.0001)  Levels:       1.
(PID.TID 0000.0001) DIAGNOSTICS_SET_POINTERS: Set levels for Outp.Stream: diags/OBPGMAP_mon_mean/OBPGMAP_mon_mean
(PID.TID 0000.0001)  Levels:       1.
(PID.TID 0000.0001) DIAGNOSTICS_SET_POINTERS: Set levels for Outp.Stream: diags/EXFpress_mon_mean/EXFpress_mon_mean
(PID.TID 0000.0001)  Levels:       1.
(PID.TID 0000.0001) DIAGNOSTICS_SET_POINTERS: done
(PID.TID 0000.0001) ------------------------------------------------------------
(PID.TID 0000.0001) DIAGSTATS_SET_REGIONS: define   0 regions:
(PID.TID 0000.0001) ------------------------------------------------------------
(PID.TID 0000.0001)   space allocated for all stats-diags:       0 levels
(PID.TID 0000.0001) DIAGSTATS_SET_POINTERS: done
(PID.TID 0000.0001) ------------------------------------------------------------
(PID.TID 0000.0001) INI_GLOBAL_DOMAIN: Found   0 CS-corner Pts in the domain
(PID.TID 0000.0001) %MON fCori_max                    =   1.4584096177006E-04
(PID.TID 0000.0001) %MON fCori_min                    =  -1.4576251334415E-04
(PID.TID 0000.0001) %MON fCori_mean                   =  -8.7654439315739E-06
(PID.TID 0000.0001) %MON fCori_sd                     =   1.0383886522938E-04
(PID.TID 0000.0001) %MON fCoriG_max                   =   1.4584247033981E-04
(PID.TID 0000.0001) %MON fCoriG_min                   =  -1.4575575421020E-04
(PID.TID 0000.0001) %MON fCoriG_mean                  =  -8.7205865294813E-06
(PID.TID 0000.0001) %MON fCoriG_sd                    =   1.0386686226587E-04
(PID.TID 0000.0001) %MON fCoriCos_max                 =   1.4584158744890E-04
(PID.TID 0000.0001) %MON fCoriCos_min                 =   6.6334365221135E-07
(PID.TID 0000.0001) %MON fCoriCos_mean                =   9.3676196717296E-05
(PID.TID 0000.0001) %MON fCoriCos_sd                  =   4.0440739161864E-05
(PID.TID 0000.0001) INI_CG2D: CG2D normalisation factor =  7.1522409280111305E-05
(PID.TID 0000.0001) 
(PID.TID 0000.0001) // =======================================================
(PID.TID 0000.0001) // Model configuration
(PID.TID 0000.0001) // =======================================================
(PID.TID 0000.0001) //
(PID.TID 0000.0001) // "Physical" paramters ( PARM01 in namelist )
(PID.TID 0000.0001) //
(PID.TID 0000.0001) buoyancyRelation = /* Type of relation to get Buoyancy */
(PID.TID 0000.0001)               'OCEANIC'
(PID.TID 0000.0001)     ;
(PID.TID 0000.0001) fluidIsAir   =  /* fluid major constituent is Air */
(PID.TID 0000.0001)                   F
(PID.TID 0000.0001)     ;
(PID.TID 0000.0001) fluidIsWater =  /* fluid major constituent is Water */
(PID.TID 0000.0001)                   T
(PID.TID 0000.0001)     ;
(PID.TID 0000.0001) usingPCoords =  /* use p (or p*) vertical coordinate */
(PID.TID 0000.0001)                   F
(PID.TID 0000.0001)     ;
(PID.TID 0000.0001) usingZCoords =  /* use z (or z*) vertical coordinate */
(PID.TID 0000.0001)                   T
(PID.TID 0000.0001)     ;
(PID.TID 0000.0001) tRef =   /* Reference temperature profile ( oC or K ) */
(PID.TID 0000.0001)     3 @  2.300000000000000E+01,             /* K =  1:  3 */
(PID.TID 0000.0001)     3 @  2.200000000000000E+01,             /* K =  4:  6 */
(PID.TID 0000.0001)                 2.100000000000000E+01,      /* K =  7 */
(PID.TID 0000.0001)     2 @  2.000000000000000E+01,             /* K =  8:  9 */
(PID.TID 0000.0001)                 1.900000000000000E+01,      /* K = 10 */
(PID.TID 0000.0001)     2 @  1.800000000000000E+01,             /* K = 11: 12 */
(PID.TID 0000.0001)                 1.700000000000000E+01,      /* K = 13 */
(PID.TID 0000.0001)     2 @  1.600000000000000E+01,             /* K = 14: 15 */
(PID.TID 0000.0001)                 1.500000000000000E+01,      /* K = 16 */
(PID.TID 0000.0001)                 1.400000000000000E+01,      /* K = 17 */
(PID.TID 0000.0001)                 1.300000000000000E+01,      /* K = 18 */
(PID.TID 0000.0001)                 1.200000000000000E+01,      /* K = 19 */
(PID.TID 0000.0001)                 1.100000000000000E+01,      /* K = 20 */
(PID.TID 0000.0001)     2 @  9.000000000000000E+00,             /* K = 21: 22 */
(PID.TID 0000.0001)                 8.000000000000000E+00,      /* K = 23 */
(PID.TID 0000.0001)                 7.000000000000000E+00,      /* K = 24 */
(PID.TID 0000.0001)     2 @  6.000000000000000E+00,             /* K = 25: 26 */
(PID.TID 0000.0001)     2 @  5.000000000000000E+00,             /* K = 27: 28 */
(PID.TID 0000.0001)     3 @  4.000000000000000E+00,             /* K = 29: 31 */
(PID.TID 0000.0001)     3 @  3.000000000000000E+00,             /* K = 32: 34 */
(PID.TID 0000.0001)     4 @  2.000000000000000E+00,             /* K = 35: 38 */
(PID.TID 0000.0001)    12 @  1.000000000000000E+00              /* K = 39: 50 */
(PID.TID 0000.0001)     ;
(PID.TID 0000.0001) sRef =   /* Reference salinity profile ( psu ) */
(PID.TID 0000.0001)    50 @  3.450000000000000E+01              /* K =  1: 50 */
(PID.TID 0000.0001)     ;
(PID.TID 0000.0001) useStrainTensionVisc= /* Use StrainTension Form of Viscous Operator */
(PID.TID 0000.0001)                   F
(PID.TID 0000.0001)     ;
(PID.TID 0000.0001) useVariableVisc = /* Use variable horizontal viscosity */
(PID.TID 0000.0001)                   T
(PID.TID 0000.0001)     ;
(PID.TID 0000.0001) useHarmonicVisc = /* Use harmonic horizontal viscosity */
(PID.TID 0000.0001)                   T
(PID.TID 0000.0001)     ;
(PID.TID 0000.0001) useBiharmonicVisc= /* Use biharmonic horiz.  viscosity */
(PID.TID 0000.0001)                   T
(PID.TID 0000.0001)     ;
(PID.TID 0000.0001) useSmag3D = /* Use isotropic 3-D Smagorinsky viscosity */
(PID.TID 0000.0001)                   F
(PID.TID 0000.0001)     ;
(PID.TID 0000.0001) viscAh  =   /* Lateral harmonic viscosity ( m^2/s ) */
(PID.TID 0000.0001)                 1.000000000000000E+00
(PID.TID 0000.0001)     ;
(PID.TID 0000.0001) viscAhMax = /* Maximum lateral harmonic viscosity ( m^2/s ) */
(PID.TID 0000.0001)                 1.000000000000000E+21
(PID.TID 0000.0001)     ;
(PID.TID 0000.0001) viscAhGrid = /* Grid dependent lateral harmonic viscosity ( non-dim. ) */
(PID.TID 0000.0001)                 2.000000000000000E-02
(PID.TID 0000.0001)     ;
(PID.TID 0000.0001) useFullLeith = /* Use Full Form of Leith Viscosity on/off flag*/
(PID.TID 0000.0001)                   F
(PID.TID 0000.0001)     ;
(PID.TID 0000.0001) useAreaViscLength = /* Use area for visc length instead of geom. mean*/
(PID.TID 0000.0001)                   F
(PID.TID 0000.0001)     ;
(PID.TID 0000.0001) viscC2leith = /* Leith harmonic visc. factor (on grad(vort),non-dim.) */
(PID.TID 0000.0001)                 0.000000000000000E+00
(PID.TID 0000.0001)     ;
(PID.TID 0000.0001) viscC2leithD = /* Leith harmonic viscosity factor (on grad(div),non-dim.)*/
(PID.TID 0000.0001)                 0.000000000000000E+00
(PID.TID 0000.0001)     ;
(PID.TID 0000.0001) viscC2smag = /* Smagorinsky harmonic viscosity factor (non-dim.) */
(PID.TID 0000.0001)                 0.000000000000000E+00
(PID.TID 0000.0001)     ;
(PID.TID 0000.0001) viscA4  =   /* Lateral biharmonic viscosity ( m^4/s ) */
(PID.TID 0000.0001)                 0.000000000000000E+00
(PID.TID 0000.0001)     ;
(PID.TID 0000.0001) viscA4Max = /* Maximum biharmonic viscosity ( m^2/s ) */
(PID.TID 0000.0001)                 1.000000000000000E+21
(PID.TID 0000.0001)     ;
(PID.TID 0000.0001) viscA4Grid = /* Grid dependent biharmonic viscosity ( non-dim. ) */
(PID.TID 0000.0001)                 0.000000000000000E+00
(PID.TID 0000.0001)     ;
(PID.TID 0000.0001) viscC4leith = /* Leith biharm viscosity factor (on grad(vort), non-dim.)*/
(PID.TID 0000.0001)                 0.000000000000000E+00
(PID.TID 0000.0001)     ;
(PID.TID 0000.0001) viscC4leithD = /* Leith biharm viscosity factor (on grad(div), non-dim.) */
(PID.TID 0000.0001)                 0.000000000000000E+00
(PID.TID 0000.0001)     ;
(PID.TID 0000.0001) viscC4Smag = /* Smagorinsky biharm viscosity factor (non-dim) */
(PID.TID 0000.0001)                 0.000000000000000E+00
(PID.TID 0000.0001)     ;
(PID.TID 0000.0001) no_slip_sides =  /* Viscous BCs: No-slip sides */
(PID.TID 0000.0001)                   T
(PID.TID 0000.0001)     ;
(PID.TID 0000.0001) sideDragFactor = /* side-drag scaling factor (non-dim) */
(PID.TID 0000.0001)                 2.000000000000000E+00
(PID.TID 0000.0001)     ;
(PID.TID 0000.0001) viscArNr = /* vertical profile of vertical viscosity ( m^2/s )*/
(PID.TID 0000.0001)    50 @  5.000000000000000E-05              /* K =  1: 50 */
(PID.TID 0000.0001)     ;
(PID.TID 0000.0001) no_slip_bottom =  /* Viscous BCs: No-slip bottom */
(PID.TID 0000.0001)                   T
(PID.TID 0000.0001)     ;
(PID.TID 0000.0001) bottomVisc_pCell = /* Partial-cell in bottom Visc. BC */
(PID.TID 0000.0001)                   F
(PID.TID 0000.0001)     ;
(PID.TID 0000.0001) bottomDragLinear = /* linear bottom-drag coefficient ( m/s ) */
(PID.TID 0000.0001)                 0.000000000000000E+00
(PID.TID 0000.0001)     ;
(PID.TID 0000.0001) bottomDragQuadratic = /* quadratic bottom-drag coefficient (-) */
(PID.TID 0000.0001)                 1.000000000000000E-03
(PID.TID 0000.0001)     ;
(PID.TID 0000.0001) selectBotDragQuadr = /* select quadratic bottom drag options */
(PID.TID 0000.0001)                       0
(PID.TID 0000.0001)     ;
(PID.TID 0000.0001) diffKhT =   /* Laplacian diffusion of heat laterally ( m^2/s ) */
(PID.TID 0000.0001)                 1.000000000000000E+01
(PID.TID 0000.0001)     ;
(PID.TID 0000.0001) diffK4T =   /* Biharmonic diffusion of heat laterally ( m^4/s ) */
(PID.TID 0000.0001)                 0.000000000000000E+00
(PID.TID 0000.0001)     ;
(PID.TID 0000.0001) diffKhS =   /* Laplacian diffusion of salt laterally ( m^2/s ) */
(PID.TID 0000.0001)                 1.000000000000000E+01
(PID.TID 0000.0001)     ;
(PID.TID 0000.0001) diffK4S =   /* Biharmonic diffusion of salt laterally ( m^4/s ) */
(PID.TID 0000.0001)                 0.000000000000000E+00
(PID.TID 0000.0001)     ;
(PID.TID 0000.0001) diffKrNrT = /* vertical profile of vertical diffusion of Temp ( m^2/s )*/
(PID.TID 0000.0001)    50 @  1.000000000000000E-05              /* K =  1: 50 */
(PID.TID 0000.0001)     ;
(PID.TID 0000.0001) diffKrNrS = /* vertical profile of vertical diffusion of Salt ( m^2/s )*/
(PID.TID 0000.0001)    50 @  1.000000000000000E-05              /* K =  1: 50 */
(PID.TID 0000.0001)     ;
(PID.TID 0000.0001) diffKrBL79surf = /* Surface diffusion for Bryan and Lewis 79 ( m^2/s ) */
(PID.TID 0000.0001)                 0.000000000000000E+00
(PID.TID 0000.0001)     ;
(PID.TID 0000.0001) diffKrBL79deep = /* Deep diffusion for Bryan and Lewis 1979 ( m^2/s ) */
(PID.TID 0000.0001)                 0.000000000000000E+00
(PID.TID 0000.0001)     ;
(PID.TID 0000.0001) diffKrBL79scl = /* Depth scale for Bryan and Lewis 1979 ( m ) */
(PID.TID 0000.0001)                 2.000000000000000E+02
(PID.TID 0000.0001)     ;
(PID.TID 0000.0001) diffKrBL79Ho = /* Turning depth for Bryan and Lewis 1979 ( m ) */
(PID.TID 0000.0001)                -2.000000000000000E+03
(PID.TID 0000.0001)     ;
(PID.TID 0000.0001) ivdc_kappa = /* Implicit Vertical Diffusivity for Convection ( m^2/s) */
(PID.TID 0000.0001)                 1.000000000000000E+01
(PID.TID 0000.0001)     ;
(PID.TID 0000.0001) hMixCriteria=  /* Criteria for mixed-layer diagnostic */
(PID.TID 0000.0001)                -8.000000000000000E-01
(PID.TID 0000.0001)     ;
(PID.TID 0000.0001) dRhoSmall =  /* Parameter for mixed-layer diagnostic */
(PID.TID 0000.0001)                 1.000000000000000E-06
(PID.TID 0000.0001)     ;
(PID.TID 0000.0001) hMixSmooth=  /* Smoothing parameter for mixed-layer diagnostic */
(PID.TID 0000.0001)                 0.000000000000000E+00
(PID.TID 0000.0001)     ;
(PID.TID 0000.0001) eosType =  /* Type of Equation of State */
(PID.TID 0000.0001)               'JMD95Z'
(PID.TID 0000.0001)     ;
(PID.TID 0000.0001) selectP_inEOS_Zc = /* select pressure to use in EOS (0,1,2,3) */
(PID.TID 0000.0001)                       0
(PID.TID 0000.0001)     0= -g*rhoConst*z ; 1= pRef (from tRef,sRef); 2= Hyd P ; 3= Hyd+NH P
(PID.TID 0000.0001)     ;
(PID.TID 0000.0001) HeatCapacity_Cp =  /* Specific heat capacity ( J/kg/K ) */
(PID.TID 0000.0001)                 3.994000000000000E+03
(PID.TID 0000.0001)     ;
(PID.TID 0000.0001) celsius2K = /* 0 degree Celsius converted to Kelvin ( K ) */
(PID.TID 0000.0001)                 2.731500000000000E+02
(PID.TID 0000.0001)     ;
(PID.TID 0000.0001) rhoConst  = /* Reference density (Boussinesq)  ( kg/m^3 ) */
(PID.TID 0000.0001)                 1.029000000000000E+03
(PID.TID 0000.0001)     ;
(PID.TID 0000.0001) rhoFacC = /* normalized Reference density @ cell-Center (-) */
(PID.TID 0000.0001)    50 @  1.000000000000000E+00              /* K =  1: 50 */
(PID.TID 0000.0001)     ;
(PID.TID 0000.0001) rhoFacF = /* normalized Reference density @ W-Interface (-) */
(PID.TID 0000.0001)    51 @  1.000000000000000E+00              /* K =  1: 51 */
(PID.TID 0000.0001)     ;
(PID.TID 0000.0001) rhoConstFresh = /* Fresh-water reference density ( kg/m^3 ) */
(PID.TID 0000.0001)                 1.000000000000000E+03
(PID.TID 0000.0001)     ;
(PID.TID 0000.0001) gravity =   /* Gravitational acceleration ( m/s^2 ) */
(PID.TID 0000.0001)                 9.810000000000000E+00
(PID.TID 0000.0001)     ;
(PID.TID 0000.0001) gBaro =   /* Barotropic gravity ( m/s^2 ) */
(PID.TID 0000.0001)                 9.810000000000000E+00
(PID.TID 0000.0001)     ;
(PID.TID 0000.0001) gravFacC = /* gravity factor (vs surf.) @ cell-Center (-) */
(PID.TID 0000.0001)    50 @  1.000000000000000E+00              /* K =  1: 50 */
(PID.TID 0000.0001)     ;
(PID.TID 0000.0001) gravFacF = /* gravity factor (vs surf.) @ W-Interface (-) */
(PID.TID 0000.0001)    51 @  1.000000000000000E+00              /* K =  1: 51 */
(PID.TID 0000.0001)     ;
(PID.TID 0000.0001) rotationPeriod =   /* Rotation Period ( s ) */
(PID.TID 0000.0001)                 8.616400000000000E+04
(PID.TID 0000.0001)     ;
(PID.TID 0000.0001) omega =   /* Angular velocity ( rad/s ) */
(PID.TID 0000.0001)                 7.292123516990375E-05
(PID.TID 0000.0001)     ;
(PID.TID 0000.0001) f0 =   /* Reference coriolis parameter ( 1/s ) */
(PID.TID 0000.0001)                 1.000000000000000E-04
(PID.TID 0000.0001)     ;
(PID.TID 0000.0001) beta =   /* Beta ( 1/(m.s) ) */
(PID.TID 0000.0001)                 9.999999999999999E-12
(PID.TID 0000.0001)     ;
(PID.TID 0000.0001) fPrime =   /* Second coriolis parameter ( 1/s ) */
(PID.TID 0000.0001)                 0.000000000000000E+00
(PID.TID 0000.0001)     ;
(PID.TID 0000.0001) rigidLid =   /* Rigid lid on/off flag */
(PID.TID 0000.0001)                   F
(PID.TID 0000.0001)     ;
(PID.TID 0000.0001) implicitFreeSurface =   /* Implicit free surface on/off flag */
(PID.TID 0000.0001)                   T
(PID.TID 0000.0001)     ;
(PID.TID 0000.0001) freeSurfFac =   /* Implicit free surface factor */
(PID.TID 0000.0001)                 1.000000000000000E+00
(PID.TID 0000.0001)     ;
(PID.TID 0000.0001) implicSurfPress =  /* Surface Pressure implicit factor (0-1)*/
(PID.TID 0000.0001)                 1.000000000000000E+00
(PID.TID 0000.0001)     ;
(PID.TID 0000.0001) implicDiv2DFlow =  /* Barot. Flow Div. implicit factor (0-1)*/
(PID.TID 0000.0001)                 1.000000000000000E+00
(PID.TID 0000.0001)     ;
(PID.TID 0000.0001) uniformLin_PhiSurf = /* use uniform Bo_surf on/off flag*/
(PID.TID 0000.0001)                   T
(PID.TID 0000.0001)     ;
(PID.TID 0000.0001) uniformFreeSurfLev = /* free-surface level-index is uniform */
(PID.TID 0000.0001)                   T
(PID.TID 0000.0001)     ;
(PID.TID 0000.0001) hFacMin =   /* minimum partial cell factor (hFac) */
(PID.TID 0000.0001)                 2.000000000000000E-01
(PID.TID 0000.0001)     ;
(PID.TID 0000.0001) hFacMinDr = /* minimum partial cell thickness ( m) */
(PID.TID 0000.0001)                 5.000000000000000E+00
(PID.TID 0000.0001)     ;
(PID.TID 0000.0001) exactConserv =  /* Exact Volume Conservation on/off flag*/
(PID.TID 0000.0001)                   T
(PID.TID 0000.0001)     ;
(PID.TID 0000.0001) linFSConserveTr = /* Tracer correction for Lin Free Surface on/off flag*/
(PID.TID 0000.0001)                   F
(PID.TID 0000.0001)     ;
(PID.TID 0000.0001) nonlinFreeSurf = /* Non-linear Free Surf. options (-1,0,1,2,3)*/
(PID.TID 0000.0001)                       4
(PID.TID 0000.0001)      -1,0= Off ; 1,2,3= On, 2=+rescale gU,gV, 3=+update cg2d solv.
(PID.TID 0000.0001)     ;
(PID.TID 0000.0001) hFacInf =   /* lower threshold for hFac (nonlinFreeSurf only)*/
(PID.TID 0000.0001)                 2.000000000000000E-01
(PID.TID 0000.0001)     ;
(PID.TID 0000.0001) hFacSup =   /* upper threshold for hFac (nonlinFreeSurf only)*/
(PID.TID 0000.0001)                 2.000000000000000E+00
(PID.TID 0000.0001)     ;
(PID.TID 0000.0001) select_rStar = /* r* Vertical coord. options (=0 r coord.; >0 uses r*)*/
(PID.TID 0000.0001)                       2
(PID.TID 0000.0001)     ;
(PID.TID 0000.0001) useRealFreshWaterFlux = /* Real Fresh Water Flux on/off flag*/
(PID.TID 0000.0001)                   T
(PID.TID 0000.0001)     ;
(PID.TID 0000.0001) temp_EvPrRn = /* Temp. of Evap/Prec/R (UNSET=use local T)(oC)*/
(PID.TID 0000.0001)                 1.234567000000000E+05
(PID.TID 0000.0001)     ;
(PID.TID 0000.0001) salt_EvPrRn = /* Salin. of Evap/Prec/R (UNSET=use local S)(psu)*/
(PID.TID 0000.0001)                 0.000000000000000E+00
(PID.TID 0000.0001)     ;
(PID.TID 0000.0001) selectAddFluid = /* option for mass source/sink of fluid (=0: off) */
(PID.TID 0000.0001)                       0
(PID.TID 0000.0001)     ;
(PID.TID 0000.0001) temp_addMass = /* Temp. of addMass array (UNSET=use local T)(oC)*/
(PID.TID 0000.0001)                 1.234567000000000E+05
(PID.TID 0000.0001)     ;
(PID.TID 0000.0001) salt_addMass = /* Salin. of addMass array (UNSET=use local S)(psu)*/
(PID.TID 0000.0001)                 0.000000000000000E+00
(PID.TID 0000.0001)     ;
(PID.TID 0000.0001) use3Dsolver = /* use 3-D pressure solver on/off flag */
(PID.TID 0000.0001)                   F
(PID.TID 0000.0001)     ;
(PID.TID 0000.0001) nonHydrostatic =  /* Non-Hydrostatic on/off flag */
(PID.TID 0000.0001)                   F
(PID.TID 0000.0001)     ;
(PID.TID 0000.0001) nh_Am2 = /* Non-Hydrostatic terms scaling factor */
(PID.TID 0000.0001)                 1.000000000000000E+00
(PID.TID 0000.0001)     ;
(PID.TID 0000.0001) implicitNHPress = /* Non-Hyd Pressure implicit factor (0-1)*/
(PID.TID 0000.0001)                 1.000000000000000E+00
(PID.TID 0000.0001)     ;
(PID.TID 0000.0001) selectNHfreeSurf = /* Non-Hyd (free-)Surface option */
(PID.TID 0000.0001)                       0
(PID.TID 0000.0001)     ;
(PID.TID 0000.0001) quasiHydrostatic = /* Quasi-Hydrostatic on/off flag */
(PID.TID 0000.0001)                   F
(PID.TID 0000.0001)     ;
(PID.TID 0000.0001) calc_wVelocity = /* vertical velocity calculation on/off flag */
(PID.TID 0000.0001)                   T
(PID.TID 0000.0001)     ;
(PID.TID 0000.0001) momStepping =  /* Momentum equation on/off flag */
(PID.TID 0000.0001)                   T
(PID.TID 0000.0001)     ;
(PID.TID 0000.0001) vectorInvariantMomentum= /* Vector-Invariant Momentum on/off */
(PID.TID 0000.0001)                   T
(PID.TID 0000.0001)     ;
(PID.TID 0000.0001) momAdvection =  /* Momentum advection on/off flag */
(PID.TID 0000.0001)                   T
(PID.TID 0000.0001)     ;
(PID.TID 0000.0001) momViscosity =  /* Momentum viscosity on/off flag */
(PID.TID 0000.0001)                   T
(PID.TID 0000.0001)     ;
(PID.TID 0000.0001) momImplVertAdv= /* Momentum implicit vert. advection on/off*/
(PID.TID 0000.0001)                   F
(PID.TID 0000.0001)     ;
(PID.TID 0000.0001) implicitViscosity = /* Implicit viscosity on/off flag */
(PID.TID 0000.0001)                   T
(PID.TID 0000.0001)     ;
(PID.TID 0000.0001) selectImplicitDrag= /* Implicit bot Drag options (0,1,2)*/
(PID.TID 0000.0001)                       0
(PID.TID 0000.0001)     0= Expl. ; 1= Impl. on provis. Vel ; 2= Fully Impl (with surf.P)
(PID.TID 0000.0001)     ;
(PID.TID 0000.0001) metricTerms =  /* metric-Terms on/off flag */
(PID.TID 0000.0001)                   F
(PID.TID 0000.0001)     ;
(PID.TID 0000.0001) useNHMTerms = /* Non-Hydrostatic Metric-Terms on/off */
(PID.TID 0000.0001)                   F
(PID.TID 0000.0001)     ;
(PID.TID 0000.0001) selectCoriMap = /* Coriolis Map options (0,1,2,3)*/
(PID.TID 0000.0001)                       2
(PID.TID 0000.0001)     0= f-Plane ; 1= Beta-Plane ; 2= Spherical ; 3= read from file
(PID.TID 0000.0001)     ;
(PID.TID 0000.0001) use3dCoriolis = /* 3-D Coriolis on/off flag */
(PID.TID 0000.0001)                   F
(PID.TID 0000.0001)     ;
(PID.TID 0000.0001) useCoriolis =  /* Coriolis on/off flag */
(PID.TID 0000.0001)                   T
(PID.TID 0000.0001)     ;
(PID.TID 0000.0001) useCDscheme =  /* CD scheme on/off flag */
(PID.TID 0000.0001)                   F
(PID.TID 0000.0001)     ;
(PID.TID 0000.0001) useEnergyConservingCoriolis= /* Flx-Form Coriolis scheme flag */
(PID.TID 0000.0001)                   F
(PID.TID 0000.0001)     ;
(PID.TID 0000.0001) useJamartWetPoints= /* Coriolis WetPoints method flag */
(PID.TID 0000.0001)                   T
(PID.TID 0000.0001)     ;
(PID.TID 0000.0001) useJamartMomAdv= /* V.I Non-linear terms Jamart flag */
(PID.TID 0000.0001)                   F
(PID.TID 0000.0001)     ;
(PID.TID 0000.0001) useAbsVorticity= /* V.I Works with f+zeta in Coriolis */
(PID.TID 0000.0001)                   F
(PID.TID 0000.0001)     ;
(PID.TID 0000.0001) selectVortScheme= /* V.I Scheme selector for Vorticity-Term */
(PID.TID 0000.0001)                       1
(PID.TID 0000.0001)    = 0 : enstrophy (Shallow-Water Eq.) conserving scheme by Sadourny, JAS 75
(PID.TID 0000.0001)    = 1 : same as 0 with modified hFac
(PID.TID 0000.0001)    = 2 : energy conserving scheme (used by Sadourny in JAS 75 paper)
(PID.TID 0000.0001)    = 3 : energy (general) and enstrophy (2D, nonDiv.) conserving scheme
(PID.TID 0000.0001)          from Sadourny (Burridge & Haseler, ECMWF Rep.4, 1977)
(PID.TID 0000.0001)     ;
(PID.TID 0000.0001) upwindVorticity= /* V.I Upwind bias vorticity flag */
(PID.TID 0000.0001)                   F
(PID.TID 0000.0001)     ;
(PID.TID 0000.0001) highOrderVorticity= /* V.I High order vort. advect. flag */
(PID.TID 0000.0001)                   F
(PID.TID 0000.0001)     ;
(PID.TID 0000.0001) upwindShear= /* V.I Upwind vertical Shear advection flag */
(PID.TID 0000.0001)                   F
(PID.TID 0000.0001)     ;
(PID.TID 0000.0001) selectKEscheme= /* V.I Kinetic Energy scheme selector */
(PID.TID 0000.0001)                       0
(PID.TID 0000.0001)     ;
(PID.TID 0000.0001) momForcing =  /* Momentum forcing on/off flag */
(PID.TID 0000.0001)                   T
(PID.TID 0000.0001)     ;
(PID.TID 0000.0001) momPressureForcing =  /* Momentum pressure term on/off flag */
(PID.TID 0000.0001)                   T
(PID.TID 0000.0001)     ;
(PID.TID 0000.0001) implicitIntGravWave= /* Implicit Internal Gravity Wave flag */
(PID.TID 0000.0001)                   F
(PID.TID 0000.0001)     ;
(PID.TID 0000.0001) staggerTimeStep =    /* Stagger time stepping on/off flag */
(PID.TID 0000.0001)                   T
(PID.TID 0000.0001)     ;
(PID.TID 0000.0001) doResetHFactors = /* reset thickness factors @ each time-step */
(PID.TID 0000.0001)                   T
(PID.TID 0000.0001)     ;
(PID.TID 0000.0001) multiDimAdvection =  /* enable/disable Multi-Dim Advection */
(PID.TID 0000.0001)                   T
(PID.TID 0000.0001)     ;
(PID.TID 0000.0001) useMultiDimAdvec =   /* Multi-Dim Advection is/is-not used */
(PID.TID 0000.0001)                   T
(PID.TID 0000.0001)     ;
(PID.TID 0000.0001) implicitDiffusion = /* Implicit Diffusion on/off flag */
(PID.TID 0000.0001)                   T
(PID.TID 0000.0001)     ;
(PID.TID 0000.0001) tempStepping =  /* Temperature equation on/off flag */
(PID.TID 0000.0001)                   T
(PID.TID 0000.0001)     ;
(PID.TID 0000.0001) tempAdvection = /* Temperature advection on/off flag */
(PID.TID 0000.0001)                   T
(PID.TID 0000.0001)     ;
(PID.TID 0000.0001) tempImplVertAdv = /* Temp. implicit vert. advection on/off */
(PID.TID 0000.0001)                   T
(PID.TID 0000.0001)     ;
(PID.TID 0000.0001) tempForcing  =  /* Temperature forcing on/off flag */
(PID.TID 0000.0001)                   T
(PID.TID 0000.0001)     ;
(PID.TID 0000.0001) balanceQnet  =  /* balance net heat-flux on/off flag */
(PID.TID 0000.0001)                   F
(PID.TID 0000.0001)     ;
(PID.TID 0000.0001) doThetaClimRelax = /* apply SST relaxation on/off flag */
(PID.TID 0000.0001)                   F
(PID.TID 0000.0001)     ;
(PID.TID 0000.0001) balanceThetaClimRelax= /* balance SST relaxation on/off flag */
(PID.TID 0000.0001)                   F
(PID.TID 0000.0001)     ;
(PID.TID 0000.0001) tempIsActiveTr = /* Temp. is a dynamically Active Tracer */
(PID.TID 0000.0001)                   T
(PID.TID 0000.0001)     ;
(PID.TID 0000.0001) saltStepping =  /* Salinity equation on/off flag */
(PID.TID 0000.0001)                   T
(PID.TID 0000.0001)     ;
(PID.TID 0000.0001) saltAdvection = /* Salinity advection on/off flag */
(PID.TID 0000.0001)                   T
(PID.TID 0000.0001)     ;
(PID.TID 0000.0001) saltImplVertAdv = /* Sali. implicit vert. advection on/off */
(PID.TID 0000.0001)                   T
(PID.TID 0000.0001)     ;
(PID.TID 0000.0001) saltForcing  =  /* Salinity forcing on/off flag */
(PID.TID 0000.0001)                   T
(PID.TID 0000.0001)     ;
(PID.TID 0000.0001) balanceEmPmR =  /* balance net fresh-water flux on/off flag */
(PID.TID 0000.0001)                   F
(PID.TID 0000.0001)     ;
(PID.TID 0000.0001) doSaltClimRelax = /* apply SSS relaxation on/off flag */
(PID.TID 0000.0001)                   F
(PID.TID 0000.0001)     ;
(PID.TID 0000.0001) balanceSaltClimRelax= /* balance SSS relaxation on/off flag */
(PID.TID 0000.0001)                   T
(PID.TID 0000.0001)     ;
(PID.TID 0000.0001) saltIsActiveTr = /* Salt  is a dynamically Active Tracer */
(PID.TID 0000.0001)                   T
(PID.TID 0000.0001)     ;
(PID.TID 0000.0001)  readBinaryPrec = /* Precision used for reading binary files */
(PID.TID 0000.0001)                      32
(PID.TID 0000.0001)     ;
(PID.TID 0000.0001) writeBinaryPrec = /* Precision used for writing binary files */
(PID.TID 0000.0001)                      32
(PID.TID 0000.0001)     ;
(PID.TID 0000.0001)  rwSuffixType =   /* select format of mds file suffix */
(PID.TID 0000.0001)                       0
(PID.TID 0000.0001)    = 0 : myIter (I10.10) ;   = 1 : 100*myTime (100th sec) ;
(PID.TID 0000.0001)    = 2 : myTime (seconds);   = 3 : myTime/360 (10th of hr);
(PID.TID 0000.0001)    = 4 : myTime/3600 (hours)
(PID.TID 0000.0001)     ;
(PID.TID 0000.0001)  globalFiles = /* write "global" (=not per tile) files */
(PID.TID 0000.0001)                   F
(PID.TID 0000.0001)     ;
(PID.TID 0000.0001)  useSingleCpuIO = /* only master MPI process does I/O */
(PID.TID 0000.0001)                   T
(PID.TID 0000.0001)     ;
(PID.TID 0000.0001)  useSingleCpuInput = /* only master process reads input */
(PID.TID 0000.0001)                   T
(PID.TID 0000.0001)     ;
(PID.TID 0000.0001) /* debLev[*]  : level of debug & auxiliary message printing */
(PID.TID 0000.0001) debLevZero =  0 ; /* level of disabled aux. msg printing */
(PID.TID 0000.0001)    debLevA =  1 ; /* level of minimum  aux. msg printing */
(PID.TID 0000.0001)    debLevB =  2 ; /* level of low aux. print (report read-file opening)*/
(PID.TID 0000.0001)    debLevC =  3 ; /* level of moderate debug prt (most pkgs debug msg) */
(PID.TID 0000.0001)    debLevD =  4 ; /* level of enhanced debug prt (add DEBUG_STATS prt) */
(PID.TID 0000.0001)    debLevE =  5 ; /* level of extensive debug printing */
(PID.TID 0000.0001) debugLevel =  /* select debug printing level */
(PID.TID 0000.0001)                       1
(PID.TID 0000.0001)     ;
(PID.TID 0000.0001)  plotLevel =  /* select PLOT_FIELD printing level */
(PID.TID 0000.0001)                       1
(PID.TID 0000.0001)     ;
(PID.TID 0000.0001) //
(PID.TID 0000.0001) // Elliptic solver(s) paramters ( PARM02 in namelist )
(PID.TID 0000.0001) //
(PID.TID 0000.0001) cg2dMaxIters =   /* Upper limit on 2d con. grad iterations  */
(PID.TID 0000.0001)                     300
(PID.TID 0000.0001)     ;
(PID.TID 0000.0001) cg2dChkResFreq =   /* 2d con. grad convergence test frequency */
(PID.TID 0000.0001)                       1
(PID.TID 0000.0001)     ;
(PID.TID 0000.0001) cg2dUseMinResSol= /* use cg2d last-iter(=0) / min-resid.(=1) solution */
(PID.TID 0000.0001)                       0
(PID.TID 0000.0001)     ;
(PID.TID 0000.0001) cg2dTargetResidual =   /* 2d con. grad target residual  */
(PID.TID 0000.0001)                 1.000000000000000E-07
(PID.TID 0000.0001)     ;
(PID.TID 0000.0001) cg2dTargetResWunit =   /* CG2d target residual [W units] */
(PID.TID 0000.0001)                -1.000000000000000E+00
(PID.TID 0000.0001)     ;
(PID.TID 0000.0001) cg2dPreCondFreq =   /* Freq. for updating cg2d preconditioner */
(PID.TID 0000.0001)                       1
(PID.TID 0000.0001)     ;
(PID.TID 0000.0001) useSRCGSolver =  /* use single reduction CG solver(s) */
(PID.TID 0000.0001)                   F
(PID.TID 0000.0001)     ;
(PID.TID 0000.0001) printResidualFreq = /* Freq. for printing CG residual */
(PID.TID 0000.0001)                       0
(PID.TID 0000.0001)     ;
(PID.TID 0000.0001) //
(PID.TID 0000.0001) // Time stepping paramters ( PARM03 in namelist )
(PID.TID 0000.0001) //
(PID.TID 0000.0001) deltaTMom =   /* Momentum equation timestep ( s ) */
(PID.TID 0000.0001)                 3.600000000000000E+03
(PID.TID 0000.0001)     ;
(PID.TID 0000.0001) deltaTFreeSurf = /* FreeSurface equation timestep ( s ) */
(PID.TID 0000.0001)                 3.600000000000000E+03
(PID.TID 0000.0001)     ;
(PID.TID 0000.0001) dTtracerLev =  /* Tracer equation timestep ( s ) */
(PID.TID 0000.0001)    50 @  3.600000000000000E+03              /* K =  1: 50 */
(PID.TID 0000.0001)     ;
(PID.TID 0000.0001) deltaTClock  =   /* Model clock timestep ( s ) */
(PID.TID 0000.0001)                 3.600000000000000E+03
(PID.TID 0000.0001)     ;
(PID.TID 0000.0001) cAdjFreq =   /* Convective adjustment interval ( s ) */
(PID.TID 0000.0001)                 0.000000000000000E+00
(PID.TID 0000.0001)     ;
(PID.TID 0000.0001) momForcingOutAB = /* =1: take Momentum Forcing out of Adams-Bash. stepping */
(PID.TID 0000.0001)                       1
(PID.TID 0000.0001)     ;
(PID.TID 0000.0001) tracForcingOutAB = /* =1: take T,S,pTr Forcing out of Adams-Bash. stepping */
(PID.TID 0000.0001)                       1
(PID.TID 0000.0001)     ;
(PID.TID 0000.0001) momDissip_In_AB = /* put Dissipation Tendency in Adams-Bash. stepping */
(PID.TID 0000.0001)                   F
(PID.TID 0000.0001)     ;
(PID.TID 0000.0001) doAB_onGtGs = /* apply AB on Tendencies (rather than on T,S)*/
(PID.TID 0000.0001)                   F
(PID.TID 0000.0001)     ;
(PID.TID 0000.0001) abEps =   /* Adams-Bashforth-2 stabilizing weight */
(PID.TID 0000.0001)                 1.000000000000000E-02
(PID.TID 0000.0001)     ;
(PID.TID 0000.0001) alph_AB =   /* Adams-Bashforth-3 primary factor */
(PID.TID 0000.0001)                 5.000000000000000E-01
(PID.TID 0000.0001)     ;
(PID.TID 0000.0001) beta_AB =   /* Adams-Bashforth-3 secondary factor */
(PID.TID 0000.0001)                 2.811050000000000E-01
(PID.TID 0000.0001)     ;
(PID.TID 0000.0001) startFromPickupAB2= /* start from AB-2 pickup */
(PID.TID 0000.0001)                   F
(PID.TID 0000.0001)     ;
(PID.TID 0000.0001) applyExchUV_early = /* Apply EXCH to U,V earlier in time-step */
(PID.TID 0000.0001)                   F
(PID.TID 0000.0001)     ;
(PID.TID 0000.0001) pickupStrictlyMatch= /* stop if pickup do not strictly match */
(PID.TID 0000.0001)                   F
(PID.TID 0000.0001)     ;
(PID.TID 0000.0001) nIter0   =   /* Run starting timestep number */
(PID.TID 0000.0001)                       1
(PID.TID 0000.0001)     ;
(PID.TID 0000.0001) nTimeSteps = /* Number of timesteps */
(PID.TID 0000.0001)                   13110
(PID.TID 0000.0001)     ;
(PID.TID 0000.0001) nEndIter =   /* Run ending timestep number */
(PID.TID 0000.0001)                   13111
(PID.TID 0000.0001)     ;
(PID.TID 0000.0001) baseTime =   /* Model base time ( s ) */
(PID.TID 0000.0001)                 0.000000000000000E+00
(PID.TID 0000.0001)     ;
(PID.TID 0000.0001) startTime =  /* Run start time ( s ) */
(PID.TID 0000.0001)                 3.600000000000000E+03
(PID.TID 0000.0001)     ;
(PID.TID 0000.0001) endTime  =   /* Integration ending time ( s ) */
(PID.TID 0000.0001)                 4.719960000000000E+07
(PID.TID 0000.0001)     ;
(PID.TID 0000.0001) pChkPtFreq = /* Permanent restart/pickup file interval ( s ) */
(PID.TID 0000.0001)                 3.153600000000000E+07
(PID.TID 0000.0001)     ;
(PID.TID 0000.0001) chkPtFreq  = /* Rolling restart/pickup file interval ( s ) */
(PID.TID 0000.0001)                 3.153600000000000E+07
(PID.TID 0000.0001)     ;
(PID.TID 0000.0001) pickup_write_mdsio =   /* Model IO flag. */
(PID.TID 0000.0001)                   T
(PID.TID 0000.0001)     ;
(PID.TID 0000.0001) pickup_read_mdsio =   /* Model IO flag. */
(PID.TID 0000.0001)                   T
(PID.TID 0000.0001)     ;
(PID.TID 0000.0001) writePickupAtEnd =   /* Model IO flag. */
(PID.TID 0000.0001)                   T
(PID.TID 0000.0001)     ;
(PID.TID 0000.0001) dumpFreq =   /* Model state write out interval ( s ). */
(PID.TID 0000.0001)                 0.000000000000000E+00
(PID.TID 0000.0001)     ;
(PID.TID 0000.0001) dumpInitAndLast= /* write out Initial & Last iter. model state */
(PID.TID 0000.0001)                   T
(PID.TID 0000.0001)     ;
(PID.TID 0000.0001) snapshot_mdsio =   /* Model IO flag. */
(PID.TID 0000.0001)                   T
(PID.TID 0000.0001)     ;
(PID.TID 0000.0001) monitorFreq =   /* Monitor output interval ( s ). */
(PID.TID 0000.0001)                 6.307200000000000E+06
(PID.TID 0000.0001)     ;
(PID.TID 0000.0001) monitorSelect = /* select group of variables to monitor */
(PID.TID 0000.0001)                       3
(PID.TID 0000.0001)     ;
(PID.TID 0000.0001) monitor_stdio =   /* Model IO flag. */
(PID.TID 0000.0001)                   T
(PID.TID 0000.0001)     ;
(PID.TID 0000.0001) externForcingPeriod =   /* forcing period (s) */
(PID.TID 0000.0001)                 0.000000000000000E+00
(PID.TID 0000.0001)     ;
(PID.TID 0000.0001) externForcingCycle =   /* period of the cyle (s). */
(PID.TID 0000.0001)                 0.000000000000000E+00
(PID.TID 0000.0001)     ;
(PID.TID 0000.0001) tauThetaClimRelax =   /* relaxation time scale (s) */
(PID.TID 0000.0001)                 0.000000000000000E+00
(PID.TID 0000.0001)     ;
(PID.TID 0000.0001) tauSaltClimRelax =   /* relaxation time scale (s) */
(PID.TID 0000.0001)                 0.000000000000000E+00
(PID.TID 0000.0001)     ;
(PID.TID 0000.0001) latBandClimRelax =   /* max. Lat. where relaxation */
(PID.TID 0000.0001)                 1.800000000000000E+02
(PID.TID 0000.0001)     ;
(PID.TID 0000.0001) //
(PID.TID 0000.0001) // Gridding paramters ( PARM04 in namelist )
(PID.TID 0000.0001) //
(PID.TID 0000.0001) usingCartesianGrid = /* Cartesian coordinates flag ( True/False ) */
(PID.TID 0000.0001)                   F
(PID.TID 0000.0001)     ;
(PID.TID 0000.0001) usingCylindricalGrid = /* Cylindrical coordinates flag ( True/False ) */
(PID.TID 0000.0001)                   F
(PID.TID 0000.0001)     ;
(PID.TID 0000.0001) usingSphericalPolarGrid = /* Spherical coordinates flag ( True/False ) */
(PID.TID 0000.0001)                   F
(PID.TID 0000.0001)     ;
(PID.TID 0000.0001) usingCurvilinearGrid = /* Curvilinear coordinates flag ( True/False ) */
(PID.TID 0000.0001)                   T
(PID.TID 0000.0001)     ;
(PID.TID 0000.0001) selectSigmaCoord = /* Hybrid-Sigma Vert. Coordinate option */
(PID.TID 0000.0001)                       0
(PID.TID 0000.0001)     ;
(PID.TID 0000.0001) rSigmaBnd = /* r/sigma transition ( units of r ==  m ) */
(PID.TID 0000.0001)                 1.234567000000000E+05
(PID.TID 0000.0001)     ;
(PID.TID 0000.0001) rkSign =   /* index orientation relative to vertical coordinate */
(PID.TID 0000.0001)                -1.000000000000000E+00
(PID.TID 0000.0001)     ;
(PID.TID 0000.0001) gravitySign = /* gravity orientation relative to vertical coordinate */
(PID.TID 0000.0001)                -1.000000000000000E+00
(PID.TID 0000.0001)     ;
(PID.TID 0000.0001) seaLev_Z =  /* reference height of sea-level [m] */
(PID.TID 0000.0001)                 0.000000000000000E+00
(PID.TID 0000.0001)     ;
(PID.TID 0000.0001) top_Pres =  /* reference pressure at the top [Pa] */
(PID.TID 0000.0001)                 0.000000000000000E+00
(PID.TID 0000.0001)     ;
(PID.TID 0000.0001) mass2rUnit = /* convert mass per unit area [kg/m2] to r-units [m] */
(PID.TID 0000.0001)                 9.718172983479105E-04
(PID.TID 0000.0001)     ;
(PID.TID 0000.0001) rUnit2mass = /* convert r-units [m] to mass per unit area [kg/m2] */
(PID.TID 0000.0001)                 1.029000000000000E+03
(PID.TID 0000.0001)     ;
(PID.TID 0000.0001) drC =   /* C spacing ( units of r ) */
(PID.TID 0000.0001)                 5.000000000000000E+00,      /* K =  1 */
(PID.TID 0000.0001)     6 @  1.000000000000000E+01,             /* K =  2:  7 */
(PID.TID 0000.0001)                 1.000500000000000E+01,      /* K =  8 */
(PID.TID 0000.0001)                 1.002000000000000E+01,      /* K =  9 */
(PID.TID 0000.0001)                 1.007000000000000E+01,      /* K = 10 */
(PID.TID 0000.0001)                 1.021500000000000E+01,      /* K = 11 */
(PID.TID 0000.0001)                 1.056000000000000E+01,      /* K = 12 */
(PID.TID 0000.0001)                 1.128000000000000E+01,      /* K = 13 */
(PID.TID 0000.0001)                 1.259000000000000E+01,      /* K = 14 */
(PID.TID 0000.0001)                 1.473000000000000E+01,      /* K = 15 */
(PID.TID 0000.0001)                 1.793000000000000E+01,      /* K = 16 */
(PID.TID 0000.0001)                 2.233500000000000E+01,      /* K = 17 */
(PID.TID 0000.0001)                 2.797500000000000E+01,      /* K = 18 */
(PID.TID 0000.0001)                 3.476000000000001E+01,      /* K = 19 */
(PID.TID 0000.0001)                 4.246000000000000E+01,      /* K = 20 */
(PID.TID 0000.0001)                 5.075000000000000E+01,      /* K = 21 */
(PID.TID 0000.0001)                 5.925000000000000E+01,      /* K = 22 */
(PID.TID 0000.0001)                 6.753999999999999E+01,      /* K = 23 */
(PID.TID 0000.0001)                 7.524000000000001E+01,      /* K = 24 */
(PID.TID 0000.0001)                 8.202500000000001E+01,      /* K = 25 */
(PID.TID 0000.0001)                 8.766500000000001E+01,      /* K = 26 */
(PID.TID 0000.0001)                 9.206999999999999E+01,      /* K = 27 */
(PID.TID 0000.0001)                 9.527000000000000E+01,      /* K = 28 */
(PID.TID 0000.0001)                 9.741499999999999E+01,      /* K = 29 */
(PID.TID 0000.0001)                 9.875000000000000E+01,      /* K = 30 */
(PID.TID 0000.0001)                 9.963000000000000E+01,      /* K = 31 */
(PID.TID 0000.0001)                 1.006700000000000E+02,      /* K = 32 */
(PID.TID 0000.0001)                 1.029450000000000E+02,      /* K = 33 */
(PID.TID 0000.0001)                 1.079450000000000E+02,      /* K = 34 */
(PID.TID 0000.0001)                 1.170800000000000E+02,      /* K = 35 */
(PID.TID 0000.0001)                 1.309600000000000E+02,      /* K = 36 */
(PID.TID 0000.0001)                 1.490150000000000E+02,      /* K = 37 */
(PID.TID 0000.0001)                 1.698850000000000E+02,      /* K = 38 */
(PID.TID 0000.0001)                 1.921900000000000E+02,      /* K = 39 */
(PID.TID 0000.0001)                 2.150250000000000E+02,      /* K = 40 */
(PID.TID 0000.0001)                 2.380000000000000E+02,      /* K = 41 */
(PID.TID 0000.0001)                 2.610000000000000E+02,      /* K = 42 */
(PID.TID 0000.0001)                 2.840000000000000E+02,      /* K = 43 */
(PID.TID 0000.0001)                 3.070000000000000E+02,      /* K = 44 */
(PID.TID 0000.0001)                 3.300000000000000E+02,      /* K = 45 */
(PID.TID 0000.0001)                 3.530000000000000E+02,      /* K = 46 */
(PID.TID 0000.0001)                 3.760000000000000E+02,      /* K = 47 */
(PID.TID 0000.0001)                 3.990000000000000E+02,      /* K = 48 */
(PID.TID 0000.0001)                 4.220000000000000E+02,      /* K = 49 */
(PID.TID 0000.0001)                 4.450000000000000E+02,      /* K = 50 */
(PID.TID 0000.0001)                 2.282500000000000E+02       /* K = 51 */
(PID.TID 0000.0001)     ;
(PID.TID 0000.0001) drF =   /* W spacing ( units of r ) */
(PID.TID 0000.0001)     7 @  1.000000000000000E+01,             /* K =  1:  7 */
(PID.TID 0000.0001)                 1.001000000000000E+01,      /* K =  8 */
(PID.TID 0000.0001)                 1.003000000000000E+01,      /* K =  9 */
(PID.TID 0000.0001)                 1.011000000000000E+01,      /* K = 10 */
(PID.TID 0000.0001)                 1.032000000000000E+01,      /* K = 11 */
(PID.TID 0000.0001)                 1.080000000000000E+01,      /* K = 12 */
(PID.TID 0000.0001)                 1.176000000000000E+01,      /* K = 13 */
(PID.TID 0000.0001)                 1.342000000000000E+01,      /* K = 14 */
(PID.TID 0000.0001)                 1.604000000000000E+01,      /* K = 15 */
(PID.TID 0000.0001)                 1.982000000000000E+01,      /* K = 16 */
(PID.TID 0000.0001)                 2.485000000000000E+01,      /* K = 17 */
(PID.TID 0000.0001)                 3.110000000000000E+01,      /* K = 18 */
(PID.TID 0000.0001)                 3.842000000000000E+01,      /* K = 19 */
(PID.TID 0000.0001)                 4.650000000000000E+01,      /* K = 20 */
(PID.TID 0000.0001)                 5.500000000000000E+01,      /* K = 21 */
(PID.TID 0000.0001)                 6.350000000000000E+01,      /* K = 22 */
(PID.TID 0000.0001)                 7.158000000000000E+01,      /* K = 23 */
(PID.TID 0000.0001)                 7.890000000000001E+01,      /* K = 24 */
(PID.TID 0000.0001)                 8.515000000000001E+01,      /* K = 25 */
(PID.TID 0000.0001)                 9.018000000000001E+01,      /* K = 26 */
(PID.TID 0000.0001)                 9.395999999999999E+01,      /* K = 27 */
(PID.TID 0000.0001)                 9.658000000000000E+01,      /* K = 28 */
(PID.TID 0000.0001)                 9.825000000000000E+01,      /* K = 29 */
(PID.TID 0000.0001)                 9.925000000000000E+01,      /* K = 30 */
(PID.TID 0000.0001)                 1.000100000000000E+02,      /* K = 31 */
(PID.TID 0000.0001)                 1.013300000000000E+02,      /* K = 32 */
(PID.TID 0000.0001)                 1.045600000000000E+02,      /* K = 33 */
(PID.TID 0000.0001)                 1.113300000000000E+02,      /* K = 34 */
(PID.TID 0000.0001)                 1.228300000000000E+02,      /* K = 35 */
(PID.TID 0000.0001)                 1.390900000000000E+02,      /* K = 36 */
(PID.TID 0000.0001)                 1.589400000000000E+02,      /* K = 37 */
(PID.TID 0000.0001)                 1.808300000000000E+02,      /* K = 38 */
(PID.TID 0000.0001)                 2.035500000000000E+02,      /* K = 39 */
(PID.TID 0000.0001)                 2.265000000000000E+02,      /* K = 40 */
(PID.TID 0000.0001)                 2.495000000000000E+02,      /* K = 41 */
(PID.TID 0000.0001)                 2.725000000000000E+02,      /* K = 42 */
(PID.TID 0000.0001)                 2.955000000000000E+02,      /* K = 43 */
(PID.TID 0000.0001)                 3.185000000000000E+02,      /* K = 44 */
(PID.TID 0000.0001)                 3.415000000000000E+02,      /* K = 45 */
(PID.TID 0000.0001)                 3.645000000000000E+02,      /* K = 46 */
(PID.TID 0000.0001)                 3.875000000000000E+02,      /* K = 47 */
(PID.TID 0000.0001)                 4.105000000000000E+02,      /* K = 48 */
(PID.TID 0000.0001)                 4.335000000000000E+02,      /* K = 49 */
(PID.TID 0000.0001)                 4.565000000000000E+02       /* K = 50 */
(PID.TID 0000.0001)     ;
(PID.TID 0000.0001) radius_fromHorizGrid = /* sphere Radius of input horiz. grid */
(PID.TID 0000.0001)                 6.370000000000000E+06
(PID.TID 0000.0001)     ;
(PID.TID 0000.0001) rSphere =  /* Radius ( ignored - cartesian, m - spherical ) */
(PID.TID 0000.0001)                 6.370000000000000E+06
(PID.TID 0000.0001)     ;
(PID.TID 0000.0001) deepAtmosphere = /* Deep/Shallow Atmosphere flag (True/False) */
(PID.TID 0000.0001)                   F
(PID.TID 0000.0001)     ;
(PID.TID 0000.0001) xC =  /* xC(:,1,:,1) : P-point X coord ( deg. or m if cartesian) */
(PID.TID 0000.0001)                -4.081468768806280E+01,      /* I =  1 */
(PID.TID 0000.0001)                -3.957104986057077E+01,      /* I =  2 */
(PID.TID 0000.0001)                -3.832217028656162E+01,      /* I =  3 */
(PID.TID 0000.0001)                -3.706844413107324E+01,      /* I =  4 */
(PID.TID 0000.0001)                -3.581028225779612E+01,      /* I =  5 */
(PID.TID 0000.0001)                -3.454811012006861E+01,      /* I =  6 */
(PID.TID 0000.0001)                -3.328236654497336E+01,      /* I =  7 */
(PID.TID 0000.0001)                -3.201350241727823E+01,      /* I =  8 */
(PID.TID 0000.0001)                -3.074197927113779E+01,      /* I =  9 */
(PID.TID 0000.0001)                -2.946826779826338E+01,      /* I = 10 */
(PID.TID 0000.0001)                -2.819284628214859E+01,      /* I = 11 */
(PID.TID 0000.0001)                -2.691619896217756E+01,      /* I = 12 */
(PID.TID 0000.0001)                -2.563881425705264E+01,      /* I = 13 */
(PID.TID 0000.0001)                -2.436118574294736E+01,      /* I = 14 */
(PID.TID 0000.0001)                -2.308380103782244E+01       /* I = 15 */
(PID.TID 0000.0001)     ;
(PID.TID 0000.0001) yC =  /* yC(1,:,1,:) : P-point Y coord ( deg. or m if cartesian) */
(PID.TID 0000.0001)                -8.146222940368236E+01,      /* J =  1 */
(PID.TID 0000.0001)                -8.113083815286421E+01,      /* J =  2 */
(PID.TID 0000.0001)                -8.079504828233755E+01,      /* J =  3 */
(PID.TID 0000.0001)                -8.045491317322768E+01,      /* J =  4 */
(PID.TID 0000.0001)                -8.011048280590389E+01,      /* J =  5 */
(PID.TID 0000.0001)                -7.976180430515704E+01,      /* J =  6 */
(PID.TID 0000.0001)                -7.940892240526760E+01,      /* J =  7 */
(PID.TID 0000.0001)                -7.905187984845006E+01,      /* J =  8 */
(PID.TID 0000.0001)                -7.869071772754813E+01,      /* J =  9 */
(PID.TID 0000.0001)                -7.832547578199167E+01,      /* J = 10 */
(PID.TID 0000.0001)                -7.795619265432416E+01,      /* J = 11 */
(PID.TID 0000.0001)                -7.758290611340497E+01,      /* J = 12 */
(PID.TID 0000.0001)                -7.720565324926896E+01,      /* J = 13 */
(PID.TID 0000.0001)                -7.682447064385434E+01,      /* J = 14 */
(PID.TID 0000.0001)                -7.643939452107085E+01       /* J = 15 */
(PID.TID 0000.0001)     ;
(PID.TID 0000.0001) rcoord = /* P-point R coordinate (  units of r ) */
(PID.TID 0000.0001)                -5.000000000000000E+00,      /* K =  1 */
(PID.TID 0000.0001)                -1.500000000000000E+01,      /* K =  2 */
(PID.TID 0000.0001)                -2.500000000000000E+01,      /* K =  3 */
(PID.TID 0000.0001)                -3.500000000000000E+01,      /* K =  4 */
(PID.TID 0000.0001)                -4.500000000000000E+01,      /* K =  5 */
(PID.TID 0000.0001)                -5.500000000000000E+01,      /* K =  6 */
(PID.TID 0000.0001)                -6.500000000000000E+01,      /* K =  7 */
(PID.TID 0000.0001)                -7.500500000000000E+01,      /* K =  8 */
(PID.TID 0000.0001)                -8.502499999999999E+01,      /* K =  9 */
(PID.TID 0000.0001)                -9.509500000000000E+01,      /* K = 10 */
(PID.TID 0000.0001)                -1.053100000000000E+02,      /* K = 11 */
(PID.TID 0000.0001)                -1.158700000000000E+02,      /* K = 12 */
(PID.TID 0000.0001)                -1.271500000000000E+02,      /* K = 13 */
(PID.TID 0000.0001)                -1.397400000000000E+02,      /* K = 14 */
(PID.TID 0000.0001)                -1.544700000000000E+02,      /* K = 15 */
(PID.TID 0000.0001)                -1.724000000000000E+02,      /* K = 16 */
(PID.TID 0000.0001)                -1.947350000000000E+02,      /* K = 17 */
(PID.TID 0000.0001)                -2.227100000000000E+02,      /* K = 18 */
(PID.TID 0000.0001)                -2.574700000000000E+02,      /* K = 19 */
(PID.TID 0000.0001)                -2.999300000000000E+02,      /* K = 20 */
(PID.TID 0000.0001)                -3.506800000000000E+02,      /* K = 21 */
(PID.TID 0000.0001)                -4.099300000000000E+02,      /* K = 22 */
(PID.TID 0000.0001)                -4.774700000000000E+02,      /* K = 23 */
(PID.TID 0000.0001)                -5.527100000000000E+02,      /* K = 24 */
(PID.TID 0000.0001)                -6.347350000000000E+02,      /* K = 25 */
(PID.TID 0000.0001)                -7.224000000000000E+02,      /* K = 26 */
(PID.TID 0000.0001)                -8.144700000000000E+02,      /* K = 27 */
(PID.TID 0000.0001)                -9.097400000000000E+02,      /* K = 28 */
(PID.TID 0000.0001)                -1.007155000000000E+03,      /* K = 29 */
(PID.TID 0000.0001)                -1.105905000000000E+03,      /* K = 30 */
(PID.TID 0000.0001)                -1.205535000000000E+03,      /* K = 31 */
(PID.TID 0000.0001)                -1.306205000000000E+03,      /* K = 32 */
(PID.TID 0000.0001)                -1.409150000000000E+03,      /* K = 33 */
(PID.TID 0000.0001)                -1.517095000000000E+03,      /* K = 34 */
(PID.TID 0000.0001)                -1.634175000000000E+03,      /* K = 35 */
(PID.TID 0000.0001)                -1.765135000000000E+03,      /* K = 36 */
(PID.TID 0000.0001)                -1.914150000000000E+03,      /* K = 37 */
(PID.TID 0000.0001)                -2.084035000000000E+03,      /* K = 38 */
(PID.TID 0000.0001)                -2.276225000000000E+03,      /* K = 39 */
(PID.TID 0000.0001)                -2.491250000000000E+03,      /* K = 40 */
(PID.TID 0000.0001)                -2.729250000000000E+03,      /* K = 41 */
(PID.TID 0000.0001)                -2.990250000000000E+03,      /* K = 42 */
(PID.TID 0000.0001)                -3.274250000000000E+03,      /* K = 43 */
(PID.TID 0000.0001)                -3.581250000000000E+03,      /* K = 44 */
(PID.TID 0000.0001)                -3.911250000000000E+03,      /* K = 45 */
(PID.TID 0000.0001)                -4.264250000000000E+03,      /* K = 46 */
(PID.TID 0000.0001)                -4.640250000000000E+03,      /* K = 47 */
(PID.TID 0000.0001)                -5.039250000000000E+03,      /* K = 48 */
(PID.TID 0000.0001)                -5.461250000000000E+03,      /* K = 49 */
(PID.TID 0000.0001)                -5.906250000000000E+03       /* K = 50 */
(PID.TID 0000.0001)     ;
(PID.TID 0000.0001) rF =   /* W-Interf. R coordinate (  units of r ) */
(PID.TID 0000.0001)                 0.000000000000000E+00,      /* K =  1 */
(PID.TID 0000.0001)                -1.000000000000000E+01,      /* K =  2 */
(PID.TID 0000.0001)                -2.000000000000000E+01,      /* K =  3 */
(PID.TID 0000.0001)                -3.000000000000000E+01,      /* K =  4 */
(PID.TID 0000.0001)                -4.000000000000000E+01,      /* K =  5 */
(PID.TID 0000.0001)                -5.000000000000000E+01,      /* K =  6 */
(PID.TID 0000.0001)                -6.000000000000000E+01,      /* K =  7 */
(PID.TID 0000.0001)                -7.000000000000000E+01,      /* K =  8 */
(PID.TID 0000.0001)                -8.001000000000001E+01,      /* K =  9 */
(PID.TID 0000.0001)                -9.004000000000001E+01,      /* K = 10 */
(PID.TID 0000.0001)                -1.001500000000000E+02,      /* K = 11 */
(PID.TID 0000.0001)                -1.104700000000000E+02,      /* K = 12 */
(PID.TID 0000.0001)                -1.212700000000000E+02,      /* K = 13 */
(PID.TID 0000.0001)                -1.330300000000000E+02,      /* K = 14 */
(PID.TID 0000.0001)                -1.464500000000000E+02,      /* K = 15 */
(PID.TID 0000.0001)                -1.624900000000000E+02,      /* K = 16 */
(PID.TID 0000.0001)                -1.823100000000000E+02,      /* K = 17 */
(PID.TID 0000.0001)                -2.071600000000000E+02,      /* K = 18 */
(PID.TID 0000.0001)                -2.382600000000000E+02,      /* K = 19 */
(PID.TID 0000.0001)                -2.766799999999999E+02,      /* K = 20 */
(PID.TID 0000.0001)                -3.231799999999999E+02,      /* K = 21 */
(PID.TID 0000.0001)                -3.781799999999999E+02,      /* K = 22 */
(PID.TID 0000.0001)                -4.416799999999999E+02,      /* K = 23 */
(PID.TID 0000.0001)                -5.132600000000000E+02,      /* K = 24 */
(PID.TID 0000.0001)                -5.921600000000000E+02,      /* K = 25 */
(PID.TID 0000.0001)                -6.773099999999999E+02,      /* K = 26 */
(PID.TID 0000.0001)                -7.674900000000000E+02,      /* K = 27 */
(PID.TID 0000.0001)                -8.614500000000000E+02,      /* K = 28 */
(PID.TID 0000.0001)                -9.580300000000001E+02,      /* K = 29 */
(PID.TID 0000.0001)                -1.056280000000000E+03,      /* K = 30 */
(PID.TID 0000.0001)                -1.155530000000000E+03,      /* K = 31 */
(PID.TID 0000.0001)                -1.255540000000000E+03,      /* K = 32 */
(PID.TID 0000.0001)                -1.356870000000000E+03,      /* K = 33 */
(PID.TID 0000.0001)                -1.461430000000000E+03,      /* K = 34 */
(PID.TID 0000.0001)                -1.572760000000000E+03,      /* K = 35 */
(PID.TID 0000.0001)                -1.695590000000000E+03,      /* K = 36 */
(PID.TID 0000.0001)                -1.834680000000000E+03,      /* K = 37 */
(PID.TID 0000.0001)                -1.993620000000000E+03,      /* K = 38 */
(PID.TID 0000.0001)                -2.174450000000000E+03,      /* K = 39 */
(PID.TID 0000.0001)                -2.378000000000000E+03,      /* K = 40 */
(PID.TID 0000.0001)                -2.604500000000000E+03,      /* K = 41 */
(PID.TID 0000.0001)                -2.854000000000000E+03,      /* K = 42 */
(PID.TID 0000.0001)                -3.126500000000000E+03,      /* K = 43 */
(PID.TID 0000.0001)                -3.422000000000000E+03,      /* K = 44 */
(PID.TID 0000.0001)                -3.740500000000000E+03,      /* K = 45 */
(PID.TID 0000.0001)                -4.082000000000000E+03,      /* K = 46 */
(PID.TID 0000.0001)                -4.446500000000000E+03,      /* K = 47 */
(PID.TID 0000.0001)                -4.834000000000000E+03,      /* K = 48 */
(PID.TID 0000.0001)                -5.244500000000000E+03,      /* K = 49 */
(PID.TID 0000.0001)                -5.678000000000000E+03,      /* K = 50 */
(PID.TID 0000.0001)                -6.134500000000000E+03       /* K = 51 */
(PID.TID 0000.0001)     ;
(PID.TID 0000.0001) deepFacC = /* deep-model grid factor @ cell-Center (-) */
(PID.TID 0000.0001)    50 @  1.000000000000000E+00              /* K =  1: 50 */
(PID.TID 0000.0001)     ;
(PID.TID 0000.0001) deepFacF = /* deep-model grid factor @ W-Interface (-) */
(PID.TID 0000.0001)    51 @  1.000000000000000E+00              /* K =  1: 51 */
(PID.TID 0000.0001)     ;
(PID.TID 0000.0001) rVel2wUnit = /* convert units: rVel -> wSpeed (=1 if z-coord)*/
(PID.TID 0000.0001)    51 @  1.000000000000000E+00              /* K =  1: 51 */
(PID.TID 0000.0001)     ;
(PID.TID 0000.0001) wUnit2rVel = /* convert units: wSpeed -> rVel (=1 if z-coord)*/
(PID.TID 0000.0001)    51 @  1.000000000000000E+00              /* K =  1: 51 */
(PID.TID 0000.0001)     ;
(PID.TID 0000.0001) dBdrRef = /* Vertical grad. of reference buoyancy [(m/s/r)^2] */
(PID.TID 0000.0001)     3 @  0.000000000000000E+00,             /* K =  1:  3 */
(PID.TID 0000.0001)                 2.706065538651213E-04,      /* K =  4 */
(PID.TID 0000.0001)     2 @  0.000000000000000E+00,             /* K =  5:  6 */
(PID.TID 0000.0001)                 2.632794562663490E-04,      /* K =  7 */
(PID.TID 0000.0001)                 2.554318021231947E-04,      /* K =  8 */
(PID.TID 0000.0001)                 0.000000000000000E+00,      /* K =  9 */
(PID.TID 0000.0001)                 2.461524232360561E-04,      /* K = 10 */
(PID.TID 0000.0001)                 2.348694431245364E-04,      /* K = 11 */
(PID.TID 0000.0001)                 0.000000000000000E+00,      /* K = 12 */
(PID.TID 0000.0001)                 2.056847859884566E-04,      /* K = 13 */
(PID.TID 0000.0001)                 1.777764506003336E-04,      /* K = 14 */
(PID.TID 0000.0001)                 0.000000000000000E+00,      /* K = 15 */
(PID.TID 0000.0001)                 1.203533867077665E-04,      /* K = 16 */
(PID.TID 0000.0001)                 9.288540355629585E-05,      /* K = 17 */
(PID.TID 0000.0001)                 7.115862770365155E-05,      /* K = 18 */
(PID.TID 0000.0001)                 5.484365820533800E-05,      /* K = 19 */
(PID.TID 0000.0001)                 4.290935507113214E-05,      /* K = 20 */
(PID.TID 0000.0001)                 6.658747741703880E-05,      /* K = 21 */
(PID.TID 0000.0001)                 0.000000000000000E+00,      /* K = 22 */
(PID.TID 0000.0001)                 2.323718420342036E-05,      /* K = 23 */
(PID.TID 0000.0001)                 1.974682037962757E-05,      /* K = 24 */
(PID.TID 0000.0001)                 1.709468932536602E-05,      /* K = 25 */
(PID.TID 0000.0001)                 0.000000000000000E+00,      /* K = 26 */
(PID.TID 0000.0001)                 1.455436545977052E-05,      /* K = 27 */
(PID.TID 0000.0001)                 0.000000000000000E+00,      /* K = 28 */
(PID.TID 0000.0001)                 1.315287111980149E-05,      /* K = 29 */
(PID.TID 0000.0001)     2 @  0.000000000000000E+00,             /* K = 30: 31 */
(PID.TID 0000.0001)                 1.240968507885233E-05,      /* K = 32 */
(PID.TID 0000.0001)     2 @  0.000000000000000E+00,             /* K = 33: 34 */
(PID.TID 0000.0001)                 1.045141607964570E-05,      /* K = 35 */
(PID.TID 0000.0001)     3 @  0.000000000000000E+00,             /* K = 36: 38 */
(PID.TID 0000.0001)                 6.628797113709505E-06,      /* K = 39 */
(PID.TID 0000.0001)    11 @  0.000000000000000E+00              /* K = 40: 50 */
(PID.TID 0000.0001)     ;
(PID.TID 0000.0001) rotateGrid = /* use rotated grid ( True/False ) */
(PID.TID 0000.0001)                   F
(PID.TID 0000.0001)     ;
(PID.TID 0000.0001) phiEuler = /* Euler angle, rotation about original z-coordinate [rad] */
(PID.TID 0000.0001)                 0.000000000000000E+00
(PID.TID 0000.0001)     ;
(PID.TID 0000.0001) thetaEuler = /* Euler angle, rotation about new x-coordinate [rad] */
(PID.TID 0000.0001)                 0.000000000000000E+00
(PID.TID 0000.0001)     ;
(PID.TID 0000.0001) psiEuler = /* Euler angle, rotation about new z-coordinate [rad] */
(PID.TID 0000.0001)                 0.000000000000000E+00
(PID.TID 0000.0001)     ;
(PID.TID 0000.0001) dxF =  /* dxF(:,1,:,1) ( units: m ) */
(PID.TID 0000.0001)                 2.071152825743187E+04,      /* I =  1 */
(PID.TID 0000.0001)                 2.070365142756831E+04,      /* I =  2 */
(PID.TID 0000.0001)                 2.069635296570141E+04,      /* I =  3 */
(PID.TID 0000.0001)                 2.068965358413176E+04,      /* I =  4 */
(PID.TID 0000.0001)                 2.068357195583360E+04,      /* I =  5 */
(PID.TID 0000.0001)                 2.067812475356784E+04,      /* I =  6 */
(PID.TID 0000.0001)                 2.067332670125947E+04,      /* I =  7 */
(PID.TID 0000.0001)                 2.066919060389092E+04,      /* I =  8 */
(PID.TID 0000.0001)                 2.066572738985245E+04,      /* I =  9 */
(PID.TID 0000.0001)                 2.066294615597989E+04,      /* I = 10 */
(PID.TID 0000.0001)                 2.066085425372315E+04,      /* I = 11 */
(PID.TID 0000.0001)                 2.065945771525925E+04,      /* I = 12 */
(PID.TID 0000.0001)                 2.065874381268158E+04,      /* I = 13 */
(PID.TID 0000.0001)                 2.065874381268158E+04,      /* I = 14 */
(PID.TID 0000.0001)                 2.065945771525925E+04       /* I = 15 */
(PID.TID 0000.0001)     ;
(PID.TID 0000.0001) dxF =  /* dxF(1,:,1,:) ( units: m ) */
(PID.TID 0000.0001)                 2.071152825743187E+04,      /* J =  1 */
(PID.TID 0000.0001)                 2.109117491456033E+04,      /* J =  2 */
(PID.TID 0000.0001)                 2.148525648961724E+04,      /* J =  3 */
(PID.TID 0000.0001)                 2.189377348588603E+04,      /* J =  4 */
(PID.TID 0000.0001)                 2.231672440915243E+04,      /* J =  5 */
(PID.TID 0000.0001)                 2.275410689480659E+04,      /* J =  6 */
(PID.TID 0000.0001)                 2.320591873318126E+04,      /* J =  7 */
(PID.TID 0000.0001)                 2.367215879054831E+04,      /* J =  8 */
(PID.TID 0000.0001)                 2.415282782538908E+04,      /* J =  9 */
(PID.TID 0000.0001)                 2.464792920101809E+04,      /* J = 10 */
(PID.TID 0000.0001)                 2.515746949702995E+04,      /* J = 11 */
(PID.TID 0000.0001)                 2.568145902315334E+04,      /* J = 12 */
(PID.TID 0000.0001)                 2.621991223981432E+04,      /* J = 13 */
(PID.TID 0000.0001)                 2.677284809033052E+04,      /* J = 14 */
(PID.TID 0000.0001)                 2.734029025013979E+04       /* J = 15 */
(PID.TID 0000.0001)     ;
(PID.TID 0000.0001) dyF =  /* dyF(:,1,:,1) ( units: m ) */
(PID.TID 0000.0001)                 3.700742300337598E+04,      /* I =  1 */
(PID.TID 0000.0001)                 3.707905556394973E+04,      /* I =  2 */
(PID.TID 0000.0001)                 3.714471828319018E+04,      /* I =  3 */
(PID.TID 0000.0001)                 3.720441078960103E+04,      /* I =  4 */
(PID.TID 0000.0001)                 3.725813297080282E+04,      /* I =  5 */
(PID.TID 0000.0001)                 3.730588490725751E+04,      /* I =  6 */
(PID.TID 0000.0001)                 3.734766681359038E+04,      /* I =  7 */
(PID.TID 0000.0001)                 3.738347898712025E+04,      /* I =  8 */
(PID.TID 0000.0001)                 3.741332176340629E+04,      /* I =  9 */
(PID.TID 0000.0001)                 3.743719547859261E+04,      /* I = 10 */
(PID.TID 0000.0001)                 3.745510043824806E+04,      /* I = 11 */
(PID.TID 0000.0001)                 3.746703689267323E+04,      /* I = 12 */
(PID.TID 0000.0001)     2 @  3.747300501832417E+04,             /* I = 13: 14 */
(PID.TID 0000.0001)                 3.746703689267323E+04       /* I = 15 */
(PID.TID 0000.0001)     ;
(PID.TID 0000.0001) dyF =  /* dyF(1,:,1,:) ( units: m ) */
(PID.TID 0000.0001)                 3.700742300337598E+04,      /* J =  1 */
(PID.TID 0000.0001)                 3.745555642044499E+04,      /* J =  2 */
(PID.TID 0000.0001)                 3.790206217653974E+04,      /* J =  3 */
(PID.TID 0000.0001)                 3.834684105117956E+04,      /* J =  4 */
(PID.TID 0000.0001)                 3.878979459357282E+04,      /* J =  5 */
(PID.TID 0000.0001)                 3.923082521328924E+04,      /* J =  6 */
(PID.TID 0000.0001)                 3.966983623246408E+04,      /* J =  7 */
(PID.TID 0000.0001)                 4.010673190475840E+04,      /* J =  8 */
(PID.TID 0000.0001)                 4.054141740950450E+04,      /* J =  9 */
(PID.TID 0000.0001)                 4.097379882434454E+04,      /* J = 10 */
(PID.TID 0000.0001)                 4.140378308084428E+04,      /* J = 11 */
(PID.TID 0000.0001)                 4.183127790875583E+04,      /* J = 12 */
(PID.TID 0000.0001)                 4.225619177206317E+04,      /* J = 13 */
(PID.TID 0000.0001)                 4.267843379867976E+04,      /* J = 14 */
(PID.TID 0000.0001)                 4.309791371221616E+04       /* J = 15 */
(PID.TID 0000.0001)     ;
(PID.TID 0000.0001) dxG =  /* dxG(:,1,:,1) ( units: m ) */
(PID.TID 0000.0001)                 2.052711702021451E+04,      /* I =  1 */
(PID.TID 0000.0001)                 2.051953983526162E+04,      /* I =  2 */
(PID.TID 0000.0001)                 2.051251425926268E+04,      /* I =  3 */
(PID.TID 0000.0001)                 2.050606148013825E+04,      /* I =  4 */
(PID.TID 0000.0001)                 2.050020059906299E+04,      /* I =  5 */
(PID.TID 0000.0001)                 2.049494867086169E+04,      /* I =  6 */
(PID.TID 0000.0001)                 2.049032075633103E+04,      /* I =  7 */
(PID.TID 0000.0001)                 2.048632995314923E+04,      /* I =  8 */
(PID.TID 0000.0001)                 2.048298743895549E+04,      /* I =  9 */
(PID.TID 0000.0001)                 2.048030251694177E+04,      /* I = 10 */
(PID.TID 0000.0001)                 2.047828270203973E+04,      /* I = 11 */
(PID.TID 0000.0001)                 2.047693414389448E+04,      /* I = 12 */
(PID.TID 0000.0001)     2 @  2.047624433858785E+04,             /* I = 13: 14 */
(PID.TID 0000.0001)                 2.047693414389443E+04       /* I = 15 */
(PID.TID 0000.0001)     ;
(PID.TID 0000.0001) dxG =  /* dxG(1,:,1,:) ( units: m ) */
(PID.TID 0000.0001)                 2.052711702021451E+04,      /* J =  1 */
(PID.TID 0000.0001)                 2.089954736357391E+04,      /* J =  2 */
(PID.TID 0000.0001)                 2.128641124518697E+04,      /* J =  3 */
(PID.TID 0000.0001)                 2.168771062037700E+04,      /* J =  4 */
(PID.TID 0000.0001)                 2.210344484655194E+04,      /* J =  5 */
(PID.TID 0000.0001)                 2.253361185972884E+04,      /* J =  6 */
(PID.TID 0000.0001)                 2.297820925105574E+04,      /* J =  7 */
(PID.TID 0000.0001)                 2.343723524028478E+04,      /* J =  8 */
(PID.TID 0000.0001)                 2.391068954427550E+04,      /* J =  9 */
(PID.TID 0000.0001)                 2.439857414125275E+04,      /* J = 10 */
(PID.TID 0000.0001)                 2.490089393241153E+04,      /* J = 11 */
(PID.TID 0000.0001)                 2.541765730414359E+04,      /* J = 12 */
(PID.TID 0000.0001)                 2.594887659459613E+04,      /* J = 13 */
(PID.TID 0000.0001)                 2.649456846940333E+04,      /* J = 14 */
(PID.TID 0000.0001)                 2.705475421181358E+04       /* J = 15 */
(PID.TID 0000.0001)     ;
(PID.TID 0000.0001) dyG =  /* dyG(:,1,:,1) ( units: m ) */
(PID.TID 0000.0001)                 3.696936823759973E+04,      /* I =  1 */
(PID.TID 0000.0001)                 3.704398547852144E+04,      /* I =  2 */
(PID.TID 0000.0001)                 3.711263318385338E+04,      /* I =  3 */
(PID.TID 0000.0001)                 3.717531082528212E+04,      /* I =  4 */
(PID.TID 0000.0001)                 3.723201816961422E+04,      /* I =  5 */
(PID.TID 0000.0001)                 3.728275520872145E+04,      /* I =  6 */
(PID.TID 0000.0001)                 3.732752209699158E+04,      /* I =  7 */
(PID.TID 0000.0001)                 3.736631909640826E+04,      /* I =  8 */
(PID.TID 0000.0001)                 3.739914652852553E+04,      /* I =  9 */
(PID.TID 0000.0001)                 3.742600473350589E+04,      /* I = 10 */
(PID.TID 0000.0001)                 3.744689403567852E+04,      /* I = 11 */
(PID.TID 0000.0001)                 3.746181471567877E+04,      /* I = 12 */
(PID.TID 0000.0001)                 3.747076698884368E+04,      /* I = 13 */
(PID.TID 0000.0001)                 3.747376174977726E+04,      /* I = 14 */
(PID.TID 0000.0001)                 3.747076698884368E+04       /* I = 15 */
(PID.TID 0000.0001)     ;
(PID.TID 0000.0001) dyG =  /* dyG(1,:,1,:) ( units: m ) */
(PID.TID 0000.0001)                 3.696936823759973E+04,      /* J =  1 */
(PID.TID 0000.0001)                 3.741746190559281E+04,      /* J =  2 */
(PID.TID 0000.0001)                 3.786390067184393E+04,      /* J =  3 */
(PID.TID 0000.0001)                 3.830858172733455E+04,      /* J =  4 */
(PID.TID 0000.0001)                 3.875140319955796E+04,      /* J =  5 */
(PID.TID 0000.0001)                 3.919226424948571E+04,      /* J =  6 */
(PID.TID 0000.0001)                 3.963106512715793E+04,      /* J =  7 */
(PID.TID 0000.0001)                 4.006770719102380E+04,      /* J =  8 */
(PID.TID 0000.0001)                 4.050209290047463E+04,      /* J =  9 */
(PID.TID 0000.0001)                 4.093412578484027E+04,      /* J = 10 */
(PID.TID 0000.0001)                 4.136371039407872E+04,      /* J = 11 */
(PID.TID 0000.0001)                 4.179075223673176E+04,      /* J = 12 */
(PID.TID 0000.0001)                 4.221515770920290E+04,      /* J = 13 */
(PID.TID 0000.0001)                 4.263683401805614E+04,      /* J = 14 */
(PID.TID 0000.0001)                 4.305568910412182E+04       /* J = 15 */
(PID.TID 0000.0001)     ;
(PID.TID 0000.0001) dxC =  /* dxC(:,1,:,1) ( units: m ) */
(PID.TID 0000.0001)                 2.071567651695695E+04,      /* I =  1 */
(PID.TID 0000.0001)                 2.070751892245589E+04,      /* I =  2 */
(PID.TID 0000.0001)                 2.069992855779408E+04,      /* I =  3 */
(PID.TID 0000.0001)                 2.069292717562287E+04,      /* I =  4 */
(PID.TID 0000.0001)                 2.068653446229046E+04,      /* I =  5 */
(PID.TID 0000.0001)                 2.068076808552306E+04,      /* I =  6 */
(PID.TID 0000.0001)                 2.067564373903614E+04,      /* I =  7 */
(PID.TID 0000.0001)                 2.067117518190149E+04,      /* I =  8 */
(PID.TID 0000.0001)                 2.066737427558298E+04,      /* I =  9 */
(PID.TID 0000.0001)                 2.066425102685107E+04,      /* I = 10 */
(PID.TID 0000.0001)                 2.066181364132844E+04,      /* I = 11 */
(PID.TID 0000.0001)                 2.066006869803818E+04,      /* I = 12 */
(PID.TID 0000.0001)                 2.065902266229015E+04,      /* I = 13 */
(PID.TID 0000.0001)                 2.065863826775786E+04,      /* I = 14 */
(PID.TID 0000.0001)                 2.065902266229016E+04       /* I = 15 */
(PID.TID 0000.0001)     ;
(PID.TID 0000.0001) dxC =  /* dxC(1,:,1,:) ( units: m ) */
(PID.TID 0000.0001)                 2.071567651695695E+04,      /* J =  1 */
(PID.TID 0000.0001)                 2.109563672137949E+04,      /* J =  2 */
(PID.TID 0000.0001)                 2.149002149497106E+04,      /* J =  3 */
(PID.TID 0000.0001)                 2.189882927482529E+04,      /* J =  4 */
(PID.TID 0000.0001)                 2.232205646389843E+04,      /* J =  5 */
(PID.TID 0000.0001)                 2.275969855854128E+04,      /* J =  6 */
(PID.TID 0000.0001)                 2.321175117362029E+04,      /* J =  7 */
(PID.TID 0000.0001)                 2.367821096276529E+04,      /* J =  8 */
(PID.TID 0000.0001)                 2.415907643347346E+04,      /* J =  9 */
(PID.TID 0000.0001)                 2.465434865814045E+04,      /* J = 10 */
(PID.TID 0000.0001)                 2.516403188365780E+04,      /* J = 11 */
(PID.TID 0000.0001)                 2.568813404310613E+04,      /* J = 12 */
(PID.TID 0000.0001)                 2.622666717399572E+04,      /* J = 13 */
(PID.TID 0000.0001)                 2.677964774799169E+04,      /* J = 14 */
(PID.TID 0000.0001)                 2.734709691757753E+04       /* J = 15 */
(PID.TID 0000.0001)     ;
(PID.TID 0000.0001) dyC =  /* dyC(:,1,:,1) ( units: m ) */
(PID.TID 0000.0001)                 3.678277710845771E+04,      /* I =  1 */
(PID.TID 0000.0001)                 3.685438685866048E+04,      /* I =  2 */
(PID.TID 0000.0001)                 3.692002588020908E+04,      /* I =  3 */
(PID.TID 0000.0001)                 3.697969453541307E+04,      /* I =  4 */
(PID.TID 0000.0001)                 3.703339337607873E+04,      /* I =  5 */
(PID.TID 0000.0001)                 3.708112307814123E+04,      /* I =  6 */
(PID.TID 0000.0001)                 3.712288438364359E+04,      /* I =  7 */
(PID.TID 0000.0001)                 3.715867804995441E+04,      /* I =  8 */
(PID.TID 0000.0001)                 3.718850480589901E+04,      /* I =  9 */
(PID.TID 0000.0001)                 3.721236531452968E+04,      /* I = 10 */
(PID.TID 0000.0001)                 3.723026014246432E+04,      /* I = 11 */
(PID.TID 0000.0001)                 3.724218973548726E+04,      /* I = 12 */
(PID.TID 0000.0001)     2 @  3.724815440020872E+04,             /* I = 13: 14 */
(PID.TID 0000.0001)                 3.724218973548726E+04       /* I = 15 */
(PID.TID 0000.0001)     ;
(PID.TID 0000.0001) dyC =  /* dyC(1,:,1,:) ( units: m ) */
(PID.TID 0000.0001)                 3.678277710845771E+04,      /* J =  1 */
(PID.TID 0000.0001)                 3.723168694115569E+04,      /* J =  2 */
(PID.TID 0000.0001)                 3.767901897410101E+04,      /* J =  3 */
(PID.TID 0000.0001)                 3.812467364657602E+04,      /* J =  4 */
(PID.TID 0000.0001)                 3.856855210935249E+04,      /* J =  5 */
(PID.TID 0000.0001)                 3.901055633269680E+04,      /* J =  6 */
(PID.TID 0000.0001)                 3.945058917911859E+04,      /* J =  7 */
(PID.TID 0000.0001)                 3.988855443472220E+04,      /* J =  8 */
(PID.TID 0000.0001)                 4.032435681898361E+04,      /* J =  9 */
(PID.TID 0000.0001)                 4.075790196435841E+04,      /* J = 10 */
(PID.TID 0000.0001)                 4.118909638222960E+04,      /* J = 11 */
(PID.TID 0000.0001)                 4.161784741043697E+04,      /* J = 12 */
(PID.TID 0000.0001)                 4.204406315499045E+04,      /* J = 13 */
(PID.TID 0000.0001)                 4.246765242091182E+04,      /* J = 14 */
(PID.TID 0000.0001)                 4.288852464034393E+04       /* J = 15 */
(PID.TID 0000.0001)     ;
(PID.TID 0000.0001) dxV =  /* dxV(:,1,:,1) ( units: m ) */
(PID.TID 0000.0001)                 2.053110526075532E+04,      /* I =  1 */
(PID.TID 0000.0001)                 2.052326088418283E+04,      /* I =  2 */
(PID.TID 0000.0001)                 2.051595672244828E+04,      /* I =  3 */
(PID.TID 0000.0001)                 2.050921502797681E+04,      /* I =  4 */
(PID.TID 0000.0001)                 2.050305593886370E+04,      /* I =  5 */
(PID.TID 0000.0001)                 2.049749752783181E+04,      /* I =  6 */
(PID.TID 0000.0001)                 2.049255584793284E+04,      /* I =  7 */
(PID.TID 0000.0001)                 2.048824497292525E+04,      /* I =  8 */
(PID.TID 0000.0001)                 2.048457703515834E+04,      /* I =  9 */
(PID.TID 0000.0001)                 2.048156226915133E+04,      /* I = 10 */
(PID.TID 0000.0001)                 2.047920906551970E+04,      /* I = 11 */
(PID.TID 0000.0001)                 2.047752414469434E+04,      /* I = 12 */
(PID.TID 0000.0001)                 2.047651405696554E+04,      /* I = 13 */
(PID.TID 0000.0001)                 2.047614194664622E+04,      /* I = 14 */
(PID.TID 0000.0001)                 2.047651405696559E+04       /* I = 15 */
(PID.TID 0000.0001)     ;
(PID.TID 0000.0001) dxV =  /* dxV(1,:,1,:) ( units: m ) */
(PID.TID 0000.0001)                 2.053110526075532E+04,      /* J =  1 */
(PID.TID 0000.0001)                 2.090385356266093E+04,      /* J =  2 */
(PID.TID 0000.0001)                 2.129102607314009E+04,      /* J =  3 */
(PID.TID 0000.0001)                 2.169262269996662E+04,      /* J =  4 */
(PID.TID 0000.0001)                 2.210864071595607E+04,      /* J =  5 */
(PID.TID 0000.0001)                 2.253907593617405E+04,      /* J =  6 */
(PID.TID 0000.0001)                 2.298392379458377E+04,      /* J =  7 */
(PID.TID 0000.0001)                 2.344318031700113E+04,      /* J =  8 */
(PID.TID 0000.0001)                 2.391684298864163E+04,      /* J =  9 */
(PID.TID 0000.0001)                 2.440491151699962E+04,      /* J = 10 */
(PID.TID 0000.0001)                 2.490738849171163E+04,      /* J = 11 */
(PID.TID 0000.0001)                 2.542427994477456E+04,      /* J = 12 */
(PID.TID 0000.0001)                 2.595559581485789E+04,      /* J = 13 */
(PID.TID 0000.0001)                 2.650135032062733E+04,      /* J = 14 */
(PID.TID 0000.0001)                 2.706156224833991E+04       /* J = 15 */
(PID.TID 0000.0001)     ;
(PID.TID 0000.0001) dyU =  /* dyU(:,1,:,1) ( units: m ) */
(PID.TID 0000.0001)                 3.674473316658630E+04,      /* I =  1 */
(PID.TID 0000.0001)                 3.681932833792822E+04,      /* I =  2 */
(PID.TID 0000.0001)                 3.688795269313092E+04,      /* I =  3 */
(PID.TID 0000.0001)                 3.695060647275718E+04,      /* I =  4 */
(PID.TID 0000.0001)                 3.700729014250917E+04,      /* I =  5 */
(PID.TID 0000.0001)                 3.705800432398131E+04,      /* I =  6 */
(PID.TID 0000.0001)                 3.710274973294064E+04,      /* I =  7 */
(PID.TID 0000.0001)                 3.714152712500728E+04,      /* I =  8 */
(PID.TID 0000.0001)                 3.717433724834998E+04,      /* I =  9 */
(PID.TID 0000.0001)                 3.720118080314009E+04,      /* I = 10 */
(PID.TID 0000.0001)                 3.722205840764935E+04,      /* I = 11 */
(PID.TID 0000.0001)                 3.723697057073888E+04,      /* I = 12 */
(PID.TID 0000.0001)                 3.724591767054543E+04,      /* I = 13 */
(PID.TID 0000.0001)                 3.724891083990022E+04,      /* I = 14 */
(PID.TID 0000.0001)                 3.724591767054542E+04       /* I = 15 */
(PID.TID 0000.0001)     ;
(PID.TID 0000.0001) dyU =  /* dyU(1,:,1,:) ( units: m ) */
(PID.TID 0000.0001)                 3.674473316658630E+04,      /* J =  1 */
(PID.TID 0000.0001)                 3.719361547538896E+04,      /* J =  2 */
(PID.TID 0000.0001)                 3.764089459751266E+04,      /* J =  3 */
(PID.TID 0000.0001)                 3.808646730382765E+04,      /* J =  4 */
(PID.TID 0000.0001)                 3.853023123895088E+04,      /* J =  5 */
(PID.TID 0000.0001)                 3.897208503739593E+04,      /* J =  6 */
(PID.TID 0000.0001)                 3.941192840112046E+04,      /* J =  7 */
(PID.TID 0000.0001)                 3.984966213263487E+04,      /* J =  8 */
(PID.TID 0000.0001)                 4.028518814419441E+04,      /* J =  9 */
(PID.TID 0000.0001)                 4.071840943468107E+04,      /* J = 10 */
(PID.TID 0000.0001)                 4.114923005120406E+04,      /* J = 11 */
(PID.TID 0000.0001)                 4.157755503103340E+04,      /* J = 12 */
(PID.TID 0000.0001)                 4.200329033666767E+04,      /* J = 13 */
(PID.TID 0000.0001)                 4.242634277960793E+04,      /* J = 14 */
(PID.TID 0000.0001)                 4.284661994092684E+04       /* J = 15 */
(PID.TID 0000.0001)     ;
(PID.TID 0000.0001) rA  =  /* rA (:,1,:,1) ( units: m^2 ) */
(PID.TID 0000.0001)                 7.665113621396177E+08,      /* I =  1 */
(PID.TID 0000.0001)                 7.677029697239892E+08,      /* I =  2 */
(PID.TID 0000.0001)                 7.687913877455838E+08,      /* I =  3 */
(PID.TID 0000.0001)                 7.697775979751738E+08,      /* I =  4 */
(PID.TID 0000.0001)                 7.706625466485583E+08,      /* I =  5 */
(PID.TID 0000.0001)                 7.714470546020026E+08,      /* I =  6 */
(PID.TID 0000.0001)                 7.721318586456149E+08,      /* I =  7 */
(PID.TID 0000.0001)                 7.727176271684608E+08,      /* I =  8 */
(PID.TID 0000.0001)                 7.732049082776864E+08,      /* I =  9 */
(PID.TID 0000.0001)                 7.735941717305043E+08,      /* I = 10 */
(PID.TID 0000.0001)                 7.738858051500469E+08,      /* I = 11 */
(PID.TID 0000.0001)                 7.740801100790358E+08,      /* I = 12 */
(PID.TID 0000.0001)                 7.741766386182301E+08,      /* I = 13 */
(PID.TID 0000.0001)                 7.741766369784317E+08,      /* I = 14 */
(PID.TID 0000.0001)                 7.740801094843833E+08       /* I = 15 */
(PID.TID 0000.0001)     ;
(PID.TID 0000.0001) rA  =  /* rA (1,:,1,:) ( units: m^2 ) */
(PID.TID 0000.0001)                 7.665113621396177E+08,      /* J =  1 */
(PID.TID 0000.0001)                 7.900134359449342E+08,      /* J =  2 */
(PID.TID 0000.0001)                 8.143679155417176E+08,      /* J =  3 */
(PID.TID 0000.0001)                 8.395900636155584E+08,      /* J =  4 */
(PID.TID 0000.0001)                 8.656947784023314E+08,      /* J =  5 */
(PID.TID 0000.0001)                 8.926966010402582E+08,      /* J =  6 */
(PID.TID 0000.0001)                 9.206097737377057E+08,      /* J =  7 */
(PID.TID 0000.0001)                 9.494482582794807E+08,      /* J =  8 */
(PID.TID 0000.0001)                 9.792257431806778E+08,      /* J =  9 */
(PID.TID 0000.0001)                 1.009955679131553E+09,      /* J = 10 */
(PID.TID 0000.0001)                 1.041651296044221E+09,      /* J = 11 */
(PID.TID 0000.0001)                 1.074325614369065E+09,      /* J = 12 */
(PID.TID 0000.0001)                 1.107991467925779E+09,      /* J = 13 */
(PID.TID 0000.0001)                 1.142661498173082E+09,      /* J = 14 */
(PID.TID 0000.0001)                 1.178348167164929E+09       /* J = 15 */
(PID.TID 0000.0001)     ;
(PID.TID 0000.0001) rAw =  /* rAw(:,1,:,1) ( units: m^2 ) */
(PID.TID 0000.0001)                 7.658765213139513E+08,      /* I =  1 */
(PID.TID 0000.0001)                 7.671201328724998E+08,      /* I =  2 */
(PID.TID 0000.0001)                 7.682600121490355E+08,      /* I =  3 */
(PID.TID 0000.0001)                 7.692972101823016E+08,      /* I =  4 */
(PID.TID 0000.0001)                 7.702326756407654E+08,      /* I =  5 */
(PID.TID 0000.0001)                 7.710673044850856E+08,      /* I =  6 */
(PID.TID 0000.0001)                 7.718018764844863E+08,      /* I =  7 */
(PID.TID 0000.0001)                 7.724370884091616E+08,      /* I =  8 */
(PID.TID 0000.0001)                 7.729735468223690E+08,      /* I =  9 */
(PID.TID 0000.0001)                 7.734117650170708E+08,      /* I = 10 */
(PID.TID 0000.0001)                 7.737521718456172E+08,      /* I = 11 */
(PID.TID 0000.0001)                 7.739951054308500E+08,      /* I = 12 */
(PID.TID 0000.0001)                 7.741408739107244E+08,      /* I = 13 */
(PID.TID 0000.0001)                 7.741880730050739E+08,      /* I = 14 */
(PID.TID 0000.0001)                 7.741408710636016E+08       /* I = 15 */
(PID.TID 0000.0001)     ;
(PID.TID 0000.0001) rAw =  /* rAw(1,:,1,:) ( units: m^2 ) */
(PID.TID 0000.0001)                 7.658765213139513E+08,      /* J =  1 */
(PID.TID 0000.0001)                 7.893768970448780E+08,      /* J =  2 */
(PID.TID 0000.0001)                 8.137283914516071E+08,      /* J =  3 */
(PID.TID 0000.0001)                 8.389460603348250E+08,      /* J =  4 */
(PID.TID 0000.0001)                 8.650445848102766E+08,      /* J =  5 */
(PID.TID 0000.0001)                 8.920382782103341E+08,      /* J =  6 */
(PID.TID 0000.0001)                 9.199411445401106E+08,      /* J =  7 */
(PID.TID 0000.0001)                 9.487668893433769E+08,      /* J =  8 */
(PID.TID 0000.0001)                 9.785289545527842E+08,      /* J =  9 */
(PID.TID 0000.0001)                 1.009240515336406E+09,      /* J = 10 */
(PID.TID 0000.0001)                 1.040914522930714E+09,      /* J = 11 */
(PID.TID 0000.0001)                 1.073563715488477E+09,      /* J = 12 */
(PID.TID 0000.0001)                 1.107200612276400E+09,      /* J = 13 */
(PID.TID 0000.0001)                 1.141837554111466E+09,      /* J = 14 */
(PID.TID 0000.0001)                 1.177486672294872E+09       /* J = 15 */
(PID.TID 0000.0001)     ;
(PID.TID 0000.0001) rAs =  /* rAs(:,1,:,1) ( units: m^2 ) */
(PID.TID 0000.0001)                 7.550751050606852E+08,      /* I =  1 */
(PID.TID 0000.0001)                 7.562658447772087E+08,      /* I =  2 */
(PID.TID 0000.0001)                 7.573533970032284E+08,      /* I =  3 */
(PID.TID 0000.0001)                 7.583387692957978E+08,      /* I =  4 */
(PID.TID 0000.0001)                 7.592229121974397E+08,      /* I =  5 */
(PID.TID 0000.0001)                 7.600066705467438E+08,      /* I =  6 */
(PID.TID 0000.0001)                 7.606907923080522E+08,      /* I =  7 */
(PID.TID 0000.0001)                 7.612759532224941E+08,      /* I =  8 */
(PID.TID 0000.0001)                 7.617627129118443E+08,      /* I =  9 */
(PID.TID 0000.0001)                 7.621515550445726E+08,      /* I = 10 */
(PID.TID 0000.0001)                 7.624428588466020E+08,      /* I = 11 */
(PID.TID 0000.0001)                 7.626369483673384E+08,      /* I = 12 */
(PID.TID 0000.0001)                 7.627333738515058E+08,      /* I = 13 */
(PID.TID 0000.0001)                 7.627333728604188E+08,      /* I = 14 */
(PID.TID 0000.0001)                 7.626369508901051E+08       /* I = 15 */
(PID.TID 0000.0001)     ;
(PID.TID 0000.0001) rAs =  /* rAs(1,:,1,:) ( units: m^2 ) */
(PID.TID 0000.0001)                 7.550751050606852E+08,      /* J =  1 */
(PID.TID 0000.0001)                 7.781568160584769E+08,      /* J =  2 */
(PID.TID 0000.0001)                 8.020831616625657E+08,      /* J =  3 */
(PID.TID 0000.0001)                 8.268695937660589E+08,      /* J =  4 */
(PID.TID 0000.0001)                 8.525311818286231E+08,      /* J =  5 */
(PID.TID 0000.0001)                 8.790826547724357E+08,      /* J =  6 */
(PID.TID 0000.0001)                 9.065383887828039E+08,      /* J =  7 */
(PID.TID 0000.0001)                 9.349124897125442E+08,      /* J =  8 */
(PID.TID 0000.0001)                 9.642187819277472E+08,      /* J =  9 */
(PID.TID 0000.0001)                 9.944708240750725E+08,      /* J = 10 */
(PID.TID 0000.0001)                 1.025681954725808E+09,      /* J = 11 */
(PID.TID 0000.0001)                 1.057865313008499E+09,      /* J = 12 */
(PID.TID 0000.0001)                 1.091033805921100E+09,      /* J = 13 */
(PID.TID 0000.0001)                 1.125200178247652E+09,      /* J = 14 */
(PID.TID 0000.0001)                 1.160376979600140E+09       /* J = 15 */
(PID.TID 0000.0001)     ;
(PID.TID 0000.0001) globalArea = /* Integrated horizontal Area (m^2) */
(PID.TID 0000.0001)                 3.580138611494433E+14
(PID.TID 0000.0001)     ;
(PID.TID 0000.0001) hasWetCSCorners = /* Domain contains CS corners (True/False) */
(PID.TID 0000.0001)                   F
(PID.TID 0000.0001)     ;
(PID.TID 0000.0001) // =======================================================
(PID.TID 0000.0001) // End of Model config. summary
(PID.TID 0000.0001) // =======================================================
(PID.TID 0000.0001) 
(PID.TID 0000.0001) == Packages configuration : Check & print summary ==
(PID.TID 0000.0001) 
(PID.TID 0000.0001) GGL90_CHECK: #define ALLOW_GGL90
(PID.TID 0000.0001) GGL90_CHECK: Some form of convection has been enabled
(PID.TID 0000.0001) GMREDI_CHECK: #define GMREDI
(PID.TID 0000.0001) GM_AdvForm =     /* if FALSE => use SkewFlux Form */
(PID.TID 0000.0001)                   T
(PID.TID 0000.0001)     ;
(PID.TID 0000.0001) GM_InMomAsStress = /* if TRUE => apply as Eddy Stress */
(PID.TID 0000.0001)                   F
(PID.TID 0000.0001)     ;
(PID.TID 0000.0001) GM_AdvSeparate = /* Calc Bolus & Euler Adv. separately */
(PID.TID 0000.0001)                   F
(PID.TID 0000.0001)     ;
(PID.TID 0000.0001) GM_ExtraDiag =   /* Tensor Extra Diag (line 1&2) non 0 */
(PID.TID 0000.0001)                   T
(PID.TID 0000.0001)     ;
(PID.TID 0000.0001) GM_isopycK =    /* Background Isopyc. Diffusivity [m^2/s] */
(PID.TID 0000.0001)                 1.000000000000000E+03
(PID.TID 0000.0001)     ;
(PID.TID 0000.0001) GM_skewflx*K =  /* Background GM_SkewFlx Diffusivity [m^2/s] */
(PID.TID 0000.0001)                 0.000000000000000E+00
(PID.TID 0000.0001)     ;
(PID.TID 0000.0001) GM_advec*K =    /* Backg. GM-Advec(=Bolus) Diffusivity [m^2/s]*/
(PID.TID 0000.0001)                 1.000000000000000E+03
(PID.TID 0000.0001)     ;
(PID.TID 0000.0001) GM_Kmin_horiz = /* Minimum Horizontal Diffusivity [m^2/s] */
(PID.TID 0000.0001)                 1.000000000000000E+02
(PID.TID 0000.0001)     ;
(PID.TID 0000.0001) GM_Visbeck_alpha = /* Visbeck alpha coeff. [-] */
(PID.TID 0000.0001)                 0.000000000000000E+00
(PID.TID 0000.0001)     ;
(PID.TID 0000.0001) GM_Small_Number =  /* epsilon used in slope calc */
(PID.TID 0000.0001)                 9.999999999999999E-21
(PID.TID 0000.0001)     ;
(PID.TID 0000.0001) GM_slopeSqCutoff = /* Slope^2 cut-off value */
(PID.TID 0000.0001)                 1.000000000000000E+08
(PID.TID 0000.0001)     ;
(PID.TID 0000.0001) GM_taper_scheme =  /* Type of Tapering/Clipping scheme */
(PID.TID 0000.0001)               'stableGmAdjTap                          '
(PID.TID 0000.0001)     ;
(PID.TID 0000.0001) GM_maxSlope =  /* Maximum Slope (Tapering/Clipping) */
(PID.TID 0000.0001)                 4.000000000000000E-03
(PID.TID 0000.0001)     ;
(PID.TID 0000.0001) GM_facTrL2dz = /* Minimum Trans.Layer Thick. (factor of dz) */
(PID.TID 0000.0001)                 1.000000000000000E+00
(PID.TID 0000.0001)     ;
(PID.TID 0000.0001) GM_facTrL2ML = /* Max.Trans.Layer Thick. (factor of MxL Depth)*/
(PID.TID 0000.0001)                 5.000000000000000E+00
(PID.TID 0000.0001)     ;
(PID.TID 0000.0001) GM_maxTransLay = /* Maximum Transition Layer Thickness [m] */
(PID.TID 0000.0001)                 5.000000000000000E+02
(PID.TID 0000.0001)     ;
(PID.TID 0000.0001) GM_UseBVP = /* if TRUE => use bvp a la Ferrari et al. (2010) */
(PID.TID 0000.0001)                   F
(PID.TID 0000.0001)     ;
(PID.TID 0000.0001) GM_BVP_ModeNumber = /* Vertical mode number for BVP wave speed */
(PID.TID 0000.0001)                       1
(PID.TID 0000.0001)     ;
(PID.TID 0000.0001) GM_BVP_cMin = /* Minimum wave speed for BVP [m/s] */
(PID.TID 0000.0001)                 1.000000000000000E-01
(PID.TID 0000.0001)     ;
(PID.TID 0000.0001) GM_useSubMeso = /* if TRUE => use Sub-Meso param. (B.Fox-Kemper) */
(PID.TID 0000.0001)                   F
(PID.TID 0000.0001)     ;
(PID.TID 0000.0001) subMeso_Ceff = /* efficiency coeff. of Mixed-Layer Eddies [-] */
(PID.TID 0000.0001)                 7.000000000000001E-02
(PID.TID 0000.0001)     ;
(PID.TID 0000.0001) subMeso_invTau = /* inverse of Sub-Meso mixing time-scale [/s] */
(PID.TID 0000.0001)                 2.000000000000000E-06
(PID.TID 0000.0001)     ;
(PID.TID 0000.0001) subMeso_LfMin = /* minimum length-scale "Lf" [m] */
(PID.TID 0000.0001)                 1.000000000000000E+03
(PID.TID 0000.0001)     ;
(PID.TID 0000.0001) subMeso_Lmax = /* maximum grid-scale length [m] */
(PID.TID 0000.0001)                 1.100000000000000E+05
(PID.TID 0000.0001)     ;
(PID.TID 0000.0001) EXF_CHECK: #define ALLOW_EXF
(PID.TID 0000.0001) SEAICE_CHECK: #define ALLOW_SEAICE
(PID.TID 0000.0001) SALT_PLUME_CHECK: #define SALT_PLUME
(PID.TID 0000.0001) CTRL_CHECK: #define ALLOW_CTRL
(PID.TID 0000.0001) COST_CHECK: #define ALLOW_COST
(PID.TID 0000.0001) SBO_CHECK: #define ALLOW_SBO
(PID.TID 0000.0001) etaday defined by gencost  28
(PID.TID 0000.0001) GAD_CHECK: #define ALLOW_GENERIC_ADVDIFF
(PID.TID 0000.0001) // =======================================================
(PID.TID 0000.0001) // Check Model config. (CONFIG_CHECK):
(PID.TID 0000.0001) // CONFIG_CHECK : Normal End
(PID.TID 0000.0001) // =======================================================
(PID.TID 0000.0001) 
(PID.TID 0000.0001)  nRecords = 403 ; filePrec =  64 ; fileIter =    192840
(PID.TID 0000.0001)     nDims =   2 , dims:
(PID.TID 0000.0001)    1:  90   1  90
(PID.TID 0000.0001)    2:1170   11170
(PID.TID 0000.0001)     nFlds =  11 , nFl3D =   8 , fields:
(PID.TID 0000.0001)  >Uvel    < >Vvel    < >Theta   < >Salt    < >GuNm1   < >GuNm2   < >GvNm1   < >GvNm2   < >EtaN    < >dEtaHdt < >EtaH    <
(PID.TID 0000.0001) missingVal=  1.00000000000000E+00 ; nTimRec =   1 , timeList:
(PID.TID 0000.0001)   6.942240000000E+08
(PID.TID 0000.0001) READ_MFLDS_3D_RL: read field: "Uvel    ", #   1 in fldList, rec=   1
(PID.TID 0000.0001) READ_MFLDS_3D_RL: read field: "Vvel    ", #   2 in fldList, rec=   2
(PID.TID 0000.0001) READ_MFLDS_3D_RL: read field: "Theta   ", #   3 in fldList, rec=   3
(PID.TID 0000.0001) READ_MFLDS_3D_RL: read field: "Salt    ", #   4 in fldList, rec=   4
(PID.TID 0000.0001) READ_MFLDS_3D_RL: read field: "GuNm1   ", #   5 in fldList, rec=   5
(PID.TID 0000.0001) READ_MFLDS_3D_RL: read field: "GuNm2   ", #   6 in fldList, rec=   6
(PID.TID 0000.0001) READ_MFLDS_3D_RL: read field: "GvNm1   ", #   7 in fldList, rec=   7
(PID.TID 0000.0001) READ_MFLDS_3D_RL: read field: "GvNm2   ", #   8 in fldList, rec=   8
(PID.TID 0000.0001) READ_MFLDS_3D_RL: read field: "EtaN    ", #   9 in fldList, rec= 401
(PID.TID 0000.0001) READ_MFLDS_3D_RL: read field: "dEtaHdt ", #  10 in fldList, rec= 402
(PID.TID 0000.0001) READ_MFLDS_3D_RL: read field: "EtaH    ", #  11 in fldList, rec= 403
(PID.TID 0000.0001) READ_MFLDS_CHECK: - normal end ; reset MFLDS file-name: pickup.0000000001
(PID.TID 0000.0001)  nRecords =   6 ; filePrec =  64 ; fileIter =    192840
(PID.TID 0000.0001)     nDims =   2 , dims:
(PID.TID 0000.0001)    1:  90   1  90
(PID.TID 0000.0001)    2:1170   11170
(PID.TID 0000.0001)     nFlds =   6 , nFl3D =   0 , fields:
(PID.TID 0000.0001)  >siTICE  < >siAREA  < >siHEFF  < >siHSNOW < >siUICE  < >siVICE  <
(PID.TID 0000.0001) missingVal=  1.00000000000000E+00 ; nTimRec =   1 , timeList:
(PID.TID 0000.0001)   6.942240000000E+08
(PID.TID 0000.0001) READ_MFLDS_LEV_RL: read field: "siTICE  ", #   1 in fldList, rec=   1
(PID.TID 0000.0001) READ_MFLDS_3D_RL: read field: "siAREA  ", #   2 in fldList, rec=   2
(PID.TID 0000.0001) READ_MFLDS_3D_RL: read field: "siHEFF  ", #   3 in fldList, rec=   3
(PID.TID 0000.0001) READ_MFLDS_3D_RL: read field: "siHSNOW ", #   4 in fldList, rec=   4
(PID.TID 0000.0001) READ_MFLDS_3D_RL: read field: "siUICE  ", #   5 in fldList, rec=   5
(PID.TID 0000.0001) READ_MFLDS_3D_RL: read field: "siVICE  ", #   6 in fldList, rec=   6
(PID.TID 0000.0001) READ_MFLDS_CHECK: - normal end ; reset MFLDS file-name: pickup_seaice.0000000001
(PID.TID 0000.0001)  ploadbar=  0.00000000000000E+00
(PID.TID 0000.0001) // =======================================================
(PID.TID 0000.0001) // Model current state
(PID.TID 0000.0001) // =======================================================
(PID.TID 0000.0001) 
(PID.TID 0000.0001) %SBO sbo_mass                     =   1.3737561289741E+21
(PID.TID 0000.0001) %SBO sbo_mass_fw                  =   4.3313603608215E+16
(PID.TID 0000.0001) %SBO sbo_zoamc                    =   1.1712417272784E+25
(PID.TID 0000.0001) %SBO sbo_zoamp                    =   2.9265929806492E+30
(PID.TID 0000.0001) whio : create lev 3 rec 221
(PID.TID 0000.0001) whio : create lev 2 rec 221
(PID.TID 0000.0001) SOLVE_FOR_PRESSURE: putPmEinXvector =    F
 cg2d: Sum(rhs),rhsMax =  -6.36393927030106E+01  2.27123055630667E+00
(PID.TID 0000.0001)  ploadbar=  1.01009886745450E+05
 cg2d: Sum(rhs),rhsMax =  -6.34974930949422E+01  2.27499183955384E+00
(PID.TID 0000.0001)  ploadbar=  1.01010710563278E+05
 cg2d: Sum(rhs),rhsMax =  -6.36224313921894E+01  2.26919831371734E+00
(PID.TID 0000.0001)  ploadbar=  1.01011534381107E+05
 cg2d: Sum(rhs),rhsMax =  -6.39407677177904E+01  2.25670151521817E+00
(PID.TID 0000.0001)  ploadbar=  1.01012424565966E+05
 cg2d: Sum(rhs),rhsMax =  -6.44769950210355E+01  2.23680163829557E+00
(PID.TID 0000.0001)  ploadbar=  1.01013314750826E+05
 cg2d: Sum(rhs),rhsMax =  -6.52215584989291E+01  2.21018609711265E+00
(PID.TID 0000.0001)  ploadbar=  1.01014204935686E+05
 cg2d: Sum(rhs),rhsMax =  -6.61118796547974E+01  2.17938329757671E+00
(PID.TID 0000.0001)  ploadbar=  1.01015095120545E+05
 cg2d: Sum(rhs),rhsMax =  -6.70571047797176E+01  2.14765907294344E+00
(PID.TID 0000.0001)  ploadbar=  1.01015985305405E+05
 cg2d: Sum(rhs),rhsMax =  -6.79572050236428E+01  2.11824053882035E+00
(PID.TID 0000.0001)  ploadbar=  1.01016875490264E+05
 cg2d: Sum(rhs),rhsMax =  -6.87474420596187E+01  2.09288026975508E+00
(PID.TID 0000.0001)  ploadbar=  1.01017559921981E+05
 cg2d: Sum(rhs),rhsMax =  -6.94178744520773E+01  2.07160024742928E+00
(PID.TID 0000.0001)  ploadbar=  1.01018244353699E+05
 cg2d: Sum(rhs),rhsMax =  -6.99911402696144E+01  2.05350171027770E+00
(PID.TID 0000.0001)  ploadbar=  1.01018928785416E+05
 cg2d: Sum(rhs),rhsMax =  -7.05709020395463E+01  2.03543330464388E+00
(PID.TID 0000.0001)  ploadbar=  1.01019613217133E+05
 cg2d: Sum(rhs),rhsMax =  -7.12132844002239E+01  2.01580719423465E+00
(PID.TID 0000.0001)  ploadbar=  1.01020297648851E+05
 cg2d: Sum(rhs),rhsMax =  -7.15902740110429E+01  2.00385143165701E+00
(PID.TID 0000.0001)  ploadbar=  1.01020982080568E+05
 cg2d: Sum(rhs),rhsMax =  -7.17232373188333E+01  1.99889087215871E+00
(PID.TID 0000.0001)  ploadbar=  1.01020515482134E+05
 cg2d: Sum(rhs),rhsMax =  -7.18256214554240E+01  1.99488405365806E+00
(PID.TID 0000.0001)  ploadbar=  1.01020048883700E+05
 cg2d: Sum(rhs),rhsMax =  -7.21113671581769E+01  1.98591088743736E+00
(PID.TID 0000.0001)  ploadbar=  1.01019582285266E+05
 cg2d: Sum(rhs),rhsMax =  -7.25634834594714E+01  1.97255420799989E+00
(PID.TID 0000.0001)  ploadbar=  1.01019115686832E+05
 cg2d: Sum(rhs),rhsMax =  -7.31267251727366E+01  1.95645745887450E+00
(PID.TID 0000.0001)  ploadbar=  1.01018649088398E+05
 cg2d: Sum(rhs),rhsMax =  -7.37244631314005E+01  1.93976066569253E+00
(PID.TID 0000.0001)  ploadbar=  1.01018182489963E+05
 cg2d: Sum(rhs),rhsMax =  -7.42148321330815E+01  1.92612261718958E+00
(PID.TID 0000.0001)  ploadbar=  1.01017897262275E+05
 cg2d: Sum(rhs),rhsMax =  -7.48450470162310E+01  1.90908730950589E+00
(PID.TID 0000.0001)  ploadbar=  1.01017612034587E+05
 cg2d: Sum(rhs),rhsMax =  -7.53652342740091E+01  1.89509313297006E+00
(PID.TID 0000.0001)  ploadbar=  1.01017326806899E+05
 cg2d: Sum(rhs),rhsMax =  -7.57972631304543E+01  1.88347622256083E+00
(PID.TID 0000.0001)  ploadbar=  1.01017041579211E+05
 cg2d: Sum(rhs),rhsMax =  -7.62665716554174E+01  1.87108745628668E+00
(PID.TID 0000.0001)  ploadbar=  1.01016756351522E+05
 cg2d: Sum(rhs),rhsMax =  -7.68323017712182E+01  1.85653061902299E+00
(PID.TID 0000.0001)  ploadbar=  1.01016471123834E+05
 cg2d: Sum(rhs),rhsMax =  -7.74927147720853E+01  1.83998168541233E+00
(PID.TID 0000.0001)  ploadbar=  1.01015226684405E+05
 cg2d: Sum(rhs),rhsMax =  -7.82297521802174E+01  1.82195496507125E+00
(PID.TID 0000.0001)  ploadbar=  1.01013982244976E+05
 cg2d: Sum(rhs),rhsMax =  -7.90202334847899E+01  1.80306920973128E+00
(PID.TID 0000.0001)  ploadbar=  1.01012737805547E+05
 cg2d: Sum(rhs),rhsMax =  -7.98368978640393E+01  1.78399532315965E+00
(PID.TID 0000.0001)  ploadbar=  1.01011493366118E+05
 cg2d: Sum(rhs),rhsMax =  -8.06429048046121E+01  1.76556511172306E+00
(PID.TID 0000.0001)  ploadbar=  1.01010248926688E+05
 cg2d: Sum(rhs),rhsMax =  -8.14141440997712E+01  1.74827134093795E+00
(PID.TID 0000.0001)  ploadbar=  1.01009004487259E+05
 cg2d: Sum(rhs),rhsMax =  -8.21238355973544E+01  1.73257496001789E+00
(PID.TID 0000.0001)  ploadbar=  1.01008451653189E+05
 cg2d: Sum(rhs),rhsMax =  -8.22952307134306E+01  1.72834607715756E+00
(PID.TID 0000.0001)  ploadbar=  1.01007898819118E+05
 cg2d: Sum(rhs),rhsMax =  -8.22525988623644E+01  1.72858320941702E+00
(PID.TID 0000.0001)  ploadbar=  1.01007345985047E+05
 cg2d: Sum(rhs),rhsMax =  -8.22034347178686E+01  1.72891781000618E+00
(PID.TID 0000.0001)  ploadbar=  1.01006793150977E+05
 cg2d: Sum(rhs),rhsMax =  -8.21413839244260E+01  1.72948076561054E+00
(PID.TID 0000.0001)  ploadbar=  1.01006240316906E+05
 cg2d: Sum(rhs),rhsMax =  -8.20591025971939E+01  1.73042390236519E+00
(PID.TID 0000.0001)  ploadbar=  1.01005687482836E+05
 cg2d: Sum(rhs),rhsMax =  -8.19193230673404E+01  1.73263825215916E+00
(PID.TID 0000.0001)  ploadbar=  1.01003949274458E+05
 cg2d: Sum(rhs),rhsMax =  -8.17484833550865E+01  1.73556748119716E+00
(PID.TID 0000.0001)  ploadbar=  1.01002211066080E+05
 cg2d: Sum(rhs),rhsMax =  -8.15570997879454E+01  1.73899214255033E+00
(PID.TID 0000.0001)  ploadbar=  1.01000472857703E+05
 cg2d: Sum(rhs),rhsMax =  -8.13686432415311E+01  1.74241060583692E+00
(PID.TID 0000.0001)  ploadbar=  1.00998734649325E+05
 cg2d: Sum(rhs),rhsMax =  -8.12140495879808E+01  1.74515823722419E+00
(PID.TID 0000.0001)  ploadbar=  1.00996996440947E+05
 cg2d: Sum(rhs),rhsMax =  -8.11302277384951E+01  1.74642501921005E+00
(PID.TID 0000.0001)  ploadbar=  1.00995258232570E+05
 cg2d: Sum(rhs),rhsMax =  -8.11111696900505E+01  1.74631095820351E+00
(PID.TID 0000.0001)  ploadbar=  1.00995220295048E+05
 cg2d: Sum(rhs),rhsMax =  -8.11445553394621E+01  1.74507022347767E+00
(PID.TID 0000.0001)  ploadbar=  1.00995182357528E+05
 cg2d: Sum(rhs),rhsMax =  -8.12136779753342E+01  1.74306307525950E+00
(PID.TID 0000.0001)  ploadbar=  1.00995144420007E+05
 cg2d: Sum(rhs),rhsMax =  -8.13045367621871E+01  1.74059355196601E+00
(PID.TID 0000.0001)  ploadbar=  1.00995106482486E+05
 cg2d: Sum(rhs),rhsMax =  -8.14144905235262E+01  1.73772223818389E+00
(PID.TID 0000.0001)  ploadbar=  1.00995068544965E+05
 cg2d: Sum(rhs),rhsMax =  -8.15567384808735E+01  1.73417439894340E+00
(PID.TID 0000.0001)  ploadbar=  1.00995030607444E+05
 cg2d: Sum(rhs),rhsMax =  -8.16946599851995E+01  1.73074420189015E+00
(PID.TID 0000.0001)  ploadbar=  1.00995217602907E+05
 cg2d: Sum(rhs),rhsMax =  -8.18125121483132E+01  1.72775181198007E+00
(PID.TID 0000.0001)  ploadbar=  1.00995404598371E+05
 cg2d: Sum(rhs),rhsMax =  -8.18983650684920E+01  1.72544041081551E+00
(PID.TID 0000.0001)  ploadbar=  1.00995591593835E+05
 cg2d: Sum(rhs),rhsMax =  -8.19690431469411E+01  1.72345013132742E+00
(PID.TID 0000.0001)  ploadbar=  1.00995778589299E+05
 cg2d: Sum(rhs),rhsMax =  -8.20384863011328E+01  1.72148771340096E+00
(PID.TID 0000.0001)  ploadbar=  1.00995965584763E+05
 cg2d: Sum(rhs),rhsMax =  -8.21170468767606E+01  1.71933639146855E+00
(PID.TID 0000.0001)  ploadbar=  1.00996152580227E+05
 cg2d: Sum(rhs),rhsMax =  -8.21716660541603E+01  1.71765765503519E+00
(PID.TID 0000.0001)  ploadbar=  1.00996796836576E+05
 cg2d: Sum(rhs),rhsMax =  -8.19471341070233E+01  1.72178840084761E+00
(PID.TID 0000.0001)  ploadbar=  1.00997441092926E+05
 cg2d: Sum(rhs),rhsMax =  -8.17219878978605E+01  1.72591184237022E+00
(PID.TID 0000.0001)  ploadbar=  1.00998085349276E+05
 cg2d: Sum(rhs),rhsMax =  -8.15491990527026E+01  1.72890387703253E+00
(PID.TID 0000.0001)  ploadbar=  1.00998729605625E+05
 cg2d: Sum(rhs),rhsMax =  -8.14311719786568E+01  1.73070103941414E+00
(PID.TID 0000.0001)  ploadbar=  1.00999373861975E+05
 cg2d: Sum(rhs),rhsMax =  -8.13575361804585E+01  1.73151059547881E+00
(PID.TID 0000.0001)  ploadbar=  1.01000018118325E+05
 cg2d: Sum(rhs),rhsMax =  -8.12599852197657E+01  1.73286007674287E+00
(PID.TID 0000.0001)  ploadbar=  1.01000113562829E+05
 cg2d: Sum(rhs),rhsMax =  -8.11736626849484E+01  1.73399585545154E+00
(PID.TID 0000.0001)  ploadbar=  1.01000209007333E+05
 cg2d: Sum(rhs),rhsMax =  -8.10896230482322E+01  1.73510539018026E+00
(PID.TID 0000.0001)  ploadbar=  1.01000304451836E+05
 cg2d: Sum(rhs),rhsMax =  -8.10030102540285E+01  1.73628961621962E+00
(PID.TID 0000.0001)  ploadbar=  1.01000399896340E+05
 cg2d: Sum(rhs),rhsMax =  -8.09129027324829E+01  1.73756885574660E+00
(PID.TID 0000.0001)  ploadbar=  1.01000495340844E+05
 cg2d: Sum(rhs),rhsMax =  -8.08242605707982E+01  1.73882708956598E+00
(PID.TID 0000.0001)  ploadbar=  1.01000590785348E+05
 cg2d: Sum(rhs),rhsMax =  -8.07327749671366E+01  1.74018329434316E+00
(PID.TID 0000.0001)  ploadbar=  1.01001617682849E+05
 cg2d: Sum(rhs),rhsMax =  -8.04331303579517E+01  1.74607933162381E+00
(PID.TID 0000.0001)  ploadbar=  1.01002644580350E+05
 cg2d: Sum(rhs),rhsMax =  -8.00975564409025E+01  1.75283314764106E+00
(PID.TID 0000.0001)  ploadbar=  1.01003671477851E+05
 cg2d: Sum(rhs),rhsMax =  -7.97766202647587E+01  1.75934713797077E+00
(PID.TID 0000.0001)  ploadbar=  1.01004698375351E+05
 cg2d: Sum(rhs),rhsMax =  -7.94725583847609E+01  1.76556031007002E+00
(PID.TID 0000.0001)  ploadbar=  1.01005725272852E+05
 cg2d: Sum(rhs),rhsMax =  -7.91874576062216E+01  1.77141672143263E+00
(PID.TID 0000.0001)  ploadbar=  1.01006752170353E+05
 cg2d: Sum(rhs),rhsMax =  -7.89668120093280E+01  1.77589743055929E+00
(PID.TID 0000.0001)  ploadbar=  1.01007648246475E+05
 cg2d: Sum(rhs),rhsMax =  -7.89899024188669E+01  1.77492966035837E+00
(PID.TID 0000.0001)  ploadbar=  1.01008544322596E+05
 cg2d: Sum(rhs),rhsMax =  -7.90512279993683E+01  1.77312499865390E+00
(PID.TID 0000.0001)  ploadbar=  1.01009440398718E+05
 cg2d: Sum(rhs),rhsMax =  -7.91441552108821E+01  1.77063416512598E+00
(PID.TID 0000.0001)  ploadbar=  1.01010336474839E+05
 cg2d: Sum(rhs),rhsMax =  -7.92715689264863E+01  1.76739707661606E+00
(PID.TID 0000.0001)  ploadbar=  1.01011232550961E+05
 cg2d: Sum(rhs),rhsMax =  -7.91536879191659E+01  1.76965453261834E+00
(PID.TID 0000.0001)  ploadbar=  1.01012128627083E+05
 cg2d: Sum(rhs),rhsMax =  -7.88603284704780E+01  1.77579958961072E+00
(PID.TID 0000.0001)  ploadbar=  1.01012584927308E+05
 cg2d: Sum(rhs),rhsMax =  -7.85838988113733E+01  1.78153595630153E+00
(PID.TID 0000.0001)  ploadbar=  1.01013041227533E+05
 cg2d: Sum(rhs),rhsMax =  -7.83606238636406E+01  1.78602690990165E+00
(PID.TID 0000.0001)  ploadbar=  1.01013497527758E+05
 cg2d: Sum(rhs),rhsMax =  -7.81925458077466E+01  1.78920861375625E+00
(PID.TID 0000.0001)  ploadbar=  1.01013953827983E+05
 cg2d: Sum(rhs),rhsMax =  -7.80818014980782E+01  1.79101973862160E+00
(PID.TID 0000.0001)  ploadbar=  1.01014410128208E+05
 cg2d: Sum(rhs),rhsMax =  -7.75001687490528E+01  1.80365554681100E+00
(PID.TID 0000.0001)  ploadbar=  1.01014866428433E+05
 cg2d: Sum(rhs),rhsMax =  -7.63937875239703E+01  1.82900682354288E+00
(PID.TID 0000.0001)  ploadbar=  1.01015381708840E+05
 cg2d: Sum(rhs),rhsMax =  -7.53651785110296E+01  1.85322990257958E+00
(PID.TID 0000.0001)  ploadbar=  1.01015896989247E+05
 cg2d: Sum(rhs),rhsMax =  -7.43917781185558E+01  1.87676936719659E+00
(PID.TID 0000.0001)  ploadbar=  1.01016412269654E+05
 cg2d: Sum(rhs),rhsMax =  -7.34422111382607E+01  1.90035717242885E+00
(PID.TID 0000.0001)  ploadbar=  1.01016927550062E+05
 cg2d: Sum(rhs),rhsMax =  -7.24772917614796E+01  1.92501313921199E+00
(PID.TID 0000.0001)  ploadbar=  1.01017442830469E+05
 cg2d: Sum(rhs),rhsMax =  -7.15031676977068E+01  1.95062331900251E+00
(PID.TID 0000.0001)  ploadbar=  1.01017958110876E+05
 cg2d: Sum(rhs),rhsMax =  -7.05555011321037E+01  1.97621391820038E+00
(PID.TID 0000.0001)  ploadbar=  1.01017973438592E+05
 cg2d: Sum(rhs),rhsMax =  -6.96479494181823E+01  2.00135744285622E+00
(PID.TID 0000.0001)  ploadbar=  1.01017988766307E+05
 cg2d: Sum(rhs),rhsMax =  -6.88007834898350E+01  2.02539280365322E+00
(PID.TID 0000.0001)  ploadbar=  1.01018004094023E+05
 cg2d: Sum(rhs),rhsMax =  -6.80372116663980E+01  2.04751329522820E+00
(PID.TID 0000.0001)  ploadbar=  1.01018019421738E+05
 cg2d: Sum(rhs),rhsMax =  -6.73929402873437E+01  2.06647494565458E+00
(PID.TID 0000.0001)  ploadbar=  1.01018034749454E+05
 cg2d: Sum(rhs),rhsMax =  -6.68934000518293E+01  2.08128958683467E+00
(PID.TID 0000.0001)  ploadbar=  1.01018050077170E+05
 cg2d: Sum(rhs),rhsMax =  -6.65795426097017E+01  2.09051301596783E+00
(PID.TID 0000.0001)  ploadbar=  1.01018983920961E+05
 cg2d: Sum(rhs),rhsMax =  -6.64744397072213E+01  2.09325470282835E+00
(PID.TID 0000.0001)  ploadbar=  1.01019917764753E+05
 cg2d: Sum(rhs),rhsMax =  -6.65800636741834E+01  2.08939306323049E+00
(PID.TID 0000.0001)  ploadbar=  1.01020851608545E+05
 cg2d: Sum(rhs),rhsMax =  -6.68760837020733E+01  2.07962695295530E+00
(PID.TID 0000.0001)  ploadbar=  1.01021785452337E+05
 cg2d: Sum(rhs),rhsMax =  -6.73178463624569E+01  2.06548661693285E+00
(PID.TID 0000.0001)  ploadbar=  1.01022719296128E+05
 cg2d: Sum(rhs),rhsMax =  -6.78463258541090E+01  2.04893136610985E+00
(PID.TID 0000.0001)  ploadbar=  1.01023653139920E+05
 cg2d: Sum(rhs),rhsMax =  -6.84265438751534E+01  2.03107216614823E+00
(PID.TID 0000.0001)  ploadbar=  1.01025076405128E+05
 cg2d: Sum(rhs),rhsMax =  -6.90683084525408E+01  2.01168620120679E+00
(PID.TID 0000.0001)  ploadbar=  1.01026499670335E+05
 cg2d: Sum(rhs),rhsMax =  -6.97941315191536E+01  1.99021952143310E+00
(PID.TID 0000.0001)  ploadbar=  1.01027922935542E+05
 cg2d: Sum(rhs),rhsMax =  -7.06086591827177E+01  1.96668342339486E+00
(PID.TID 0000.0001)  ploadbar=  1.01029346200750E+05
 cg2d: Sum(rhs),rhsMax =  -7.14934220699514E+01  1.94173621750249E+00
(PID.TID 0000.0001)  ploadbar=  1.01030769465957E+05
 cg2d: Sum(rhs),rhsMax =  -7.24012402377343E+01  1.91674739176970E+00
(PID.TID 0000.0001)  ploadbar=  1.01032192731164E+05
 cg2d: Sum(rhs),rhsMax =  -7.33011484121491E+01  1.89261069780985E+00
(PID.TID 0000.0001)  ploadbar=  1.01033636514029E+05
 cg2d: Sum(rhs),rhsMax =  -7.41983127205580E+01  1.86915360877050E+00
(PID.TID 0000.0001)  ploadbar=  1.01035080296894E+05
 cg2d: Sum(rhs),rhsMax =  -7.51016139167996E+01  1.84612726098189E+00
(PID.TID 0000.0001)  ploadbar=  1.01036524079758E+05
 cg2d: Sum(rhs),rhsMax =  -7.60185018321155E+01  1.82334257487039E+00
(PID.TID 0000.0001)  ploadbar=  1.01037967862623E+05
 cg2d: Sum(rhs),rhsMax =  -7.69490190332799E+01  1.80080051522142E+00
(PID.TID 0000.0001)  ploadbar=  1.01039411645488E+05
 cg2d: Sum(rhs),rhsMax =  -7.79015638016363E+01  1.77830007271870E+00
(PID.TID 0000.0001)  ploadbar=  1.01040855428352E+05
 cg2d: Sum(rhs),rhsMax =  -7.88773926209251E+01  1.75579459231495E+00
(PID.TID 0000.0001)  ploadbar=  1.01041991999889E+05
 cg2d: Sum(rhs),rhsMax =  -7.98896152062797E+01  1.73301596360779E+00
(PID.TID 0000.0001)  ploadbar=  1.01043128571425E+05
 cg2d: Sum(rhs),rhsMax =  -8.09415184285723E+01  1.70993349408856E+00
(PID.TID 0000.0001)  ploadbar=  1.01044265142961E+05
 cg2d: Sum(rhs),rhsMax =  -8.20294469271107E+01  1.68666617655789E+00
(PID.TID 0000.0001)  ploadbar=  1.01045401714497E+05
 cg2d: Sum(rhs),rhsMax =  -8.28407387938225E+01  1.66952705708581E+00
(PID.TID 0000.0001)  ploadbar=  1.01046538286033E+05
 cg2d: Sum(rhs),rhsMax =  -8.29068603818096E+01  1.66753477064364E+00
(PID.TID 0000.0001)  ploadbar=  1.01047674857569E+05
 cg2d: Sum(rhs),rhsMax =  -8.29521131442123E+01  1.66597833999326E+00
(PID.TID 0000.0001)  ploadbar=  1.01048912970943E+05
 cg2d: Sum(rhs),rhsMax =  -8.29697427823825E+01  1.66498136918069E+00
(PID.TID 0000.0001)  ploadbar=  1.01050151084317E+05
 cg2d: Sum(rhs),rhsMax =  -8.29429913825643E+01  1.66487669873871E+00
(PID.TID 0000.0001)  ploadbar=  1.01051389197691E+05
 cg2d: Sum(rhs),rhsMax =  -8.28629374483371E+01  1.66584081183186E+00
(PID.TID 0000.0001)  ploadbar=  1.01052627311065E+05
 cg2d: Sum(rhs),rhsMax =  -8.27326197061457E+01  1.66781545468003E+00
(PID.TID 0000.0001)  ploadbar=  1.01053865424440E+05
 cg2d: Sum(rhs),rhsMax =  -8.25602735641509E+01  1.67064050150340E+00
(PID.TID 0000.0001)  ploadbar=  1.01055103537814E+05
 cg2d: Sum(rhs),rhsMax =  -8.23583514189499E+01  1.67405300799411E+00
(PID.TID 0000.0001)  ploadbar=  1.01056222874109E+05
 cg2d: Sum(rhs),rhsMax =  -8.21203501789065E+01  1.67819053482218E+00
(PID.TID 0000.0001)  ploadbar=  1.01057342210403E+05
 cg2d: Sum(rhs),rhsMax =  -8.18551463117115E+01  1.68287788247619E+00
(PID.TID 0000.0001)  ploadbar=  1.01058461546699E+05
 cg2d: Sum(rhs),rhsMax =  -8.15756223976681E+01  1.68785816966468E+00
(PID.TID 0000.0001)  ploadbar=  1.01059580882994E+05
 cg2d: Sum(rhs),rhsMax =  -8.12875883155223E+01  1.69301587124465E+00
(PID.TID 0000.0001)  ploadbar=  1.01060700219289E+05
 cg2d: Sum(rhs),rhsMax =  -8.09915745648043E+01  1.69833960081388E+00
(PID.TID 0000.0001)  ploadbar=  1.01061819555584E+05
 cg2d: Sum(rhs),rhsMax =  -8.07581774599434E+01  1.70241637942600E+00
(PID.TID 0000.0001)  ploadbar=  1.01061930850003E+05
 cg2d: Sum(rhs),rhsMax =  -8.04643619131355E+01  1.70782961117451E+00
(PID.TID 0000.0001)  ploadbar=  1.01062042144422E+05
 cg2d: Sum(rhs),rhsMax =  -8.01328462454830E+01  1.71411907984540E+00
(PID.TID 0000.0001)  ploadbar=  1.01062153438842E+05
 cg2d: Sum(rhs),rhsMax =  -7.97738140390966E+01  1.72108551047710E+00
(PID.TID 0000.0001)  ploadbar=  1.01062264733261E+05
 cg2d: Sum(rhs),rhsMax =  -7.94067790296068E+01  1.72831540029584E+00
(PID.TID 0000.0001)  ploadbar=  1.01062376027680E+05
 cg2d: Sum(rhs),rhsMax =  -7.90546578839190E+01  1.73530170588408E+00
(PID.TID 0000.0001)  ploadbar=  1.01062487322100E+05
 cg2d: Sum(rhs),rhsMax =  -7.86967247250485E+01  1.74247476294204E+00
(PID.TID 0000.0001)  ploadbar=  1.01062159977140E+05
 cg2d: Sum(rhs),rhsMax =  -7.83689306881293E+01  1.74903408362609E+00
(PID.TID 0000.0001)  ploadbar=  1.01061832632180E+05
 cg2d: Sum(rhs),rhsMax =  -7.80791116571600E+01  1.75479013033758E+00
(PID.TID 0000.0001)  ploadbar=  1.01061505287220E+05
 cg2d: Sum(rhs),rhsMax =  -7.78022673844938E+01  1.76028774099800E+00
(PID.TID 0000.0001)  ploadbar=  1.01061177942260E+05
 cg2d: Sum(rhs),rhsMax =  -7.75452032161959E+01  1.76536318019324E+00
(PID.TID 0000.0001)  ploadbar=  1.01060850597300E+05
 cg2d: Sum(rhs),rhsMax =  -7.73110303737459E+01  1.76993549830981E+00
(PID.TID 0000.0001)  ploadbar=  1.01060523252340E+05
 cg2d: Sum(rhs),rhsMax =  -7.65541468613913E+01  1.78667792124071E+00
(PID.TID 0000.0001)  ploadbar=  1.01060507317938E+05
 cg2d: Sum(rhs),rhsMax =  -7.55234580745264E+01  1.81031070743743E+00
(PID.TID 0000.0001)  ploadbar=  1.01060491383536E+05
 cg2d: Sum(rhs),rhsMax =  -7.44549962403901E+01  1.83554223053323E+00
(PID.TID 0000.0001)  ploadbar=  1.01060475449135E+05
 cg2d: Sum(rhs),rhsMax =  -7.33784731976759E+01  1.86172460285304E+00
(PID.TID 0000.0001)  ploadbar=  1.01060459514733E+05
 cg2d: Sum(rhs),rhsMax =  -7.22885756561872E+01  1.88904541864816E+00
(PID.TID 0000.0001)  ploadbar=  1.01060443580331E+05
 cg2d: Sum(rhs),rhsMax =  -7.11985758455324E+01  1.91721288318354E+00
(PID.TID 0000.0001)  ploadbar=  1.01060427645930E+05
 cg2d: Sum(rhs),rhsMax =  -7.00986037585346E+01  1.94651703394897E+00
(PID.TID 0000.0001)  ploadbar=  1.01060225530149E+05
 cg2d: Sum(rhs),rhsMax =  -6.89785168984406E+01  1.97731350151780E+00
(PID.TID 0000.0001)  ploadbar=  1.01060023414368E+05
 cg2d: Sum(rhs),rhsMax =  -6.78513543961607E+01  2.00931623418689E+00
(PID.TID 0000.0001)  ploadbar=  1.01059821298588E+05
 cg2d: Sum(rhs),rhsMax =  -6.67353261503948E+01  2.04204131917963E+00
(PID.TID 0000.0001)  ploadbar=  1.01059619182807E+05
 cg2d: Sum(rhs),rhsMax =  -6.56789525225158E+01  2.07397328320041E+00
(PID.TID 0000.0001)  ploadbar=  1.01059417067026E+05
 cg2d: Sum(rhs),rhsMax =  -6.47267746221151E+01  2.10352415409503E+00
(PID.TID 0000.0001)  ploadbar=  1.01059214951246E+05
 cg2d: Sum(rhs),rhsMax =  -6.38931634468152E+01  2.13007141055424E+00
(PID.TID 0000.0001)  ploadbar=  1.01059225595712E+05
 cg2d: Sum(rhs),rhsMax =  -6.31853682162031E+01  2.15309347224831E+00
(PID.TID 0000.0001)  ploadbar=  1.01059236240179E+05
 cg2d: Sum(rhs),rhsMax =  -6.25946476408811E+01  2.17262956034821E+00
(PID.TID 0000.0001)  ploadbar=  1.01059246884646E+05
 cg2d: Sum(rhs),rhsMax =  -6.20944929366821E+01  2.18940247057546E+00
(PID.TID 0000.0001)  ploadbar=  1.01059257529112E+05
 cg2d: Sum(rhs),rhsMax =  -6.16488719231845E+01  2.20454900303729E+00
(PID.TID 0000.0001)  ploadbar=  1.01059268173579E+05
 cg2d: Sum(rhs),rhsMax =  -6.12248864502351E+01  2.21917511282111E+00
(PID.TID 0000.0001)  ploadbar=  1.01059278818046E+05
 cg2d: Sum(rhs),rhsMax =  -6.08200565605246E+01  2.23325505217598E+00
(PID.TID 0000.0001)  ploadbar=  1.01059579434945E+05
 cg2d: Sum(rhs),rhsMax =  -6.04393864245096E+01  2.24657204714103E+00
(PID.TID 0000.0001)  ploadbar=  1.01059880051844E+05
 cg2d: Sum(rhs),rhsMax =  -6.00850791808072E+01  2.25901978356194E+00
(PID.TID 0000.0001)  ploadbar=  1.01060180668743E+05
 cg2d: Sum(rhs),rhsMax =  -5.97692909088076E+01  2.27010492196731E+00
(PID.TID 0000.0001)  ploadbar=  1.01060481285643E+05
 cg2d: Sum(rhs),rhsMax =  -5.94947600741743E+01  2.27967143974407E+00
(PID.TID 0000.0001)  ploadbar=  1.01060781902542E+05
 cg2d: Sum(rhs),rhsMax =  -5.92663879088548E+01  2.28748480775377E+00
(PID.TID 0000.0001)  ploadbar=  1.01061082519441E+05
 cg2d: Sum(rhs),rhsMax =  -5.90905397726581E+01  2.29336115775980E+00
(PID.TID 0000.0001)  ploadbar=  1.01060440369864E+05
 cg2d: Sum(rhs),rhsMax =  -5.89646089967918E+01  2.29735702344040E+00
(PID.TID 0000.0001)  ploadbar=  1.01059798220287E+05
 cg2d: Sum(rhs),rhsMax =  -5.88818847496900E+01  2.29970778673514E+00
(PID.TID 0000.0001)  ploadbar=  1.01059156070710E+05
 cg2d: Sum(rhs),rhsMax =  -5.88290921213206E+01  2.30091403899167E+00
(PID.TID 0000.0001)  ploadbar=  1.01058513921132E+05
 cg2d: Sum(rhs),rhsMax =  -5.88016128644823E+01  2.30114847894010E+00
(PID.TID 0000.0001)  ploadbar=  1.01057871771555E+05
 cg2d: Sum(rhs),rhsMax =  -5.87932910696477E+01  2.30064770148596E+00
(PID.TID 0000.0001)  ploadbar=  1.01057229621978E+05
 cg2d: Sum(rhs),rhsMax =  -5.87868309203551E+01  2.30003884925102E+00
(PID.TID 0000.0001)  ploadbar=  1.01058152794450E+05
 cg2d: Sum(rhs),rhsMax =  -5.87778066583188E+01  2.29948834697912E+00
(PID.TID 0000.0001)  ploadbar=  1.01059075966923E+05
 cg2d: Sum(rhs),rhsMax =  -5.87651234080612E+01  2.29903536112054E+00
(PID.TID 0000.0001)  ploadbar=  1.01059999139395E+05
 cg2d: Sum(rhs),rhsMax =  -5.87517803477228E+01  2.29855870606707E+00
(PID.TID 0000.0001)  ploadbar=  1.01060922311867E+05
 cg2d: Sum(rhs),rhsMax =  -5.87454775176381E+01  2.29775099405215E+00
(PID.TID 0000.0001)  ploadbar=  1.01061845484339E+05
 cg2d: Sum(rhs),rhsMax =  -5.87562494568910E+01  2.29621076867746E+00
(PID.TID 0000.0001)  ploadbar=  1.01062768656812E+05
 cg2d: Sum(rhs),rhsMax =  -5.87872120498673E+01  2.29394349371886E+00
(PID.TID 0000.0001)  ploadbar=  1.01063531774286E+05
 cg2d: Sum(rhs),rhsMax =  -5.88436137191293E+01  2.29074197403572E+00
(PID.TID 0000.0001)  ploadbar=  1.01064294891760E+05
 cg2d: Sum(rhs),rhsMax =  -5.89304227632578E+01  2.28641407649077E+00
(PID.TID 0000.0001)  ploadbar=  1.01065058009235E+05
 cg2d: Sum(rhs),rhsMax =  -5.90497586348128E+01  2.28088265086981E+00
(PID.TID 0000.0001)  ploadbar=  1.01065821126709E+05
 cg2d: Sum(rhs),rhsMax =  -5.91985991595079E+01  2.27427214077922E+00
(PID.TID 0000.0001)  ploadbar=  1.01066584244183E+05
 cg2d: Sum(rhs),rhsMax =  -5.93796710559602E+01  2.26649011802475E+00
(PID.TID 0000.0001)  ploadbar=  1.01067347361657E+05
 cg2d: Sum(rhs),rhsMax =  -5.95915272894791E+01  2.25760096000867E+00
(PID.TID 0000.0001)  ploadbar=  1.01067469434675E+05
 cg2d: Sum(rhs),rhsMax =  -5.98281866223927E+01  2.24784504426578E+00
(PID.TID 0000.0001)  ploadbar=  1.01067591507692E+05
 cg2d: Sum(rhs),rhsMax =  -6.00883621740537E+01  2.23729124836766E+00
(PID.TID 0000.0001)  ploadbar=  1.01067713580710E+05
 cg2d: Sum(rhs),rhsMax =  -6.03731971914036E+01  2.22592486944746E+00
(PID.TID 0000.0001)  ploadbar=  1.01067835653727E+05
 cg2d: Sum(rhs),rhsMax =  -6.06848199681496E+01  2.21369703925795E+00
(PID.TID 0000.0001)  ploadbar=  1.01067957726744E+05
 cg2d: Sum(rhs),rhsMax =  -6.10258389282647E+01  2.20053728054076E+00
(PID.TID 0000.0001)  ploadbar=  1.01068079799762E+05
 cg2d: Sum(rhs),rhsMax =  -6.13962807163284E+01  2.18651618377136E+00
(PID.TID 0000.0001)  ploadbar=  1.01068888736797E+05
 cg2d: Sum(rhs),rhsMax =  -6.17900942921608E+01  2.17187548912474E+00
(PID.TID 0000.0001)  ploadbar=  1.01069697673832E+05
 cg2d: Sum(rhs),rhsMax =  -6.22011177872276E+01  2.15685259142766E+00
(PID.TID 0000.0001)  ploadbar=  1.01070506610867E+05
 cg2d: Sum(rhs),rhsMax =  -6.26218515130830E+01  2.14171816489137E+00
(PID.TID 0000.0001)  ploadbar=  1.01071315547902E+05
 cg2d: Sum(rhs),rhsMax =  -6.30451954304003E+01  2.12671757994837E+00
(PID.TID 0000.0001)  ploadbar=  1.01072124484937E+05
 cg2d: Sum(rhs),rhsMax =  -6.34668830417657E+01  2.11199082960650E+00
(PID.TID 0000.0001)  ploadbar=  1.01072933421972E+05
 cg2d: Sum(rhs),rhsMax =  -6.38895699112017E+01  2.09738869026587E+00
(PID.TID 0000.0001)  ploadbar=  1.01072560508577E+05
 cg2d: Sum(rhs),rhsMax =  -6.43133077769013E+01  2.08290542507584E+00
(PID.TID 0000.0001)  ploadbar=  1.01072187595181E+05
 cg2d: Sum(rhs),rhsMax =  -6.47397874562942E+01  2.06848292337343E+00
(PID.TID 0000.0001)  ploadbar=  1.01071814681786E+05
 cg2d: Sum(rhs),rhsMax =  -6.51715387092002E+01  2.05404138734998E+00
(PID.TID 0000.0001)  ploadbar=  1.01071441768391E+05
 cg2d: Sum(rhs),rhsMax =  -6.56079279816159E+01  2.03960463881727E+00
(PID.TID 0000.0001)  ploadbar=  1.01071068854996E+05
 cg2d: Sum(rhs),rhsMax =  -6.60473913055363E+01  2.02521936991493E+00
(PID.TID 0000.0001)  ploadbar=  1.01070695941600E+05
 cg2d: Sum(rhs),rhsMax =  -6.64826415838083E+01  2.01119568709888E+00
(PID.TID 0000.0001)  ploadbar=  1.01069761110068E+05
 cg2d: Sum(rhs),rhsMax =  -6.69119364503476E+01  1.99757286440939E+00
(PID.TID 0000.0001)  ploadbar=  1.01068826278536E+05
 cg2d: Sum(rhs),rhsMax =  -6.73418074733602E+01  1.98414368323720E+00
(PID.TID 0000.0001)  ploadbar=  1.01067891447005E+05
 cg2d: Sum(rhs),rhsMax =  -6.77720831477163E+01  1.97090816854313E+00
(PID.TID 0000.0001)  ploadbar=  1.01066956615473E+05
 cg2d: Sum(rhs),rhsMax =  -6.82033470561037E+01  1.95784370403270E+00
(PID.TID 0000.0001)  ploadbar=  1.01066021783941E+05
 cg2d: Sum(rhs),rhsMax =  -6.86363487736543E+01  1.94492007797980E+00
(PID.TID 0000.0001)  ploadbar=  1.01065086952409E+05
 cg2d: Sum(rhs),rhsMax =  -6.90705107667326E+01  1.93212151058978E+00
(PID.TID 0000.0001)  ploadbar=  1.01064411192842E+05
 cg2d: Sum(rhs),rhsMax =  -6.95061490269350E+01  1.91943170007405E+00
(PID.TID 0000.0001)  ploadbar=  1.01063735433275E+05
 cg2d: Sum(rhs),rhsMax =  -6.99425706378538E+01  1.90686674657663E+00
(PID.TID 0000.0001)  ploadbar=  1.01063059673708E+05
 cg2d: Sum(rhs),rhsMax =  -7.03787024854851E+01  1.89445119511803E+00
(PID.TID 0000.0001)  ploadbar=  1.01062383914141E+05
 cg2d: Sum(rhs),rhsMax =  -7.08135903563910E+01  1.88220801755921E+00
(PID.TID 0000.0001)  ploadbar=  1.01061708154574E+05
 cg2d: Sum(rhs),rhsMax =  -7.12318177114829E+01  1.87053692089127E+00
(PID.TID 0000.0001)  ploadbar=  1.01061032395007E+05
 cg2d: Sum(rhs),rhsMax =  -7.16534569594860E+01  1.85895120565549E+00
(PID.TID 0000.0001)  ploadbar=  1.01059208684305E+05
 cg2d: Sum(rhs),rhsMax =  -7.20812576302397E+01  1.84737284903323E+00
(PID.TID 0000.0001)  ploadbar=  1.01057384973604E+05
 cg2d: Sum(rhs),rhsMax =  -7.25163055690951E+01  1.83577205841612E+00
(PID.TID 0000.0001)  ploadbar=  1.01055561262902E+05
 cg2d: Sum(rhs),rhsMax =  -7.29590909425945E+01  1.82413692039951E+00
(PID.TID 0000.0001)  ploadbar=  1.01053737552201E+05
 cg2d: Sum(rhs),rhsMax =  -7.34097094025372E+01  1.81246638263424E+00
(PID.TID 0000.0001)  ploadbar=  1.01051913841499E+05
 cg2d: Sum(rhs),rhsMax =  -7.38661811707345E+01  1.80081170885988E+00
(PID.TID 0000.0001)  ploadbar=  1.01050090130797E+05
 cg2d: Sum(rhs),rhsMax =  -7.43234568093984E+01  1.78924000364092E+00
(PID.TID 0000.0001)  ploadbar=  1.01049135529062E+05
 cg2d: Sum(rhs),rhsMax =  -7.47826098279883E+01  1.77772053980629E+00
(PID.TID 0000.0001)  ploadbar=  1.01048180927327E+05
 cg2d: Sum(rhs),rhsMax =  -7.52443408051247E+01  1.76623236223577E+00
(PID.TID 0000.0001)  ploadbar=  1.01047226325591E+05
 cg2d: Sum(rhs),rhsMax =  -7.54979374694488E+01  1.75967017227128E+00
(PID.TID 0000.0001)  ploadbar=  1.01046271723856E+05
 cg2d: Sum(rhs),rhsMax =  -7.56232960148363E+01  1.75606894963210E+00
(PID.TID 0000.0001)  ploadbar=  1.01045317122121E+05
 cg2d: Sum(rhs),rhsMax =  -7.57931026690110E+01  1.75139360704925E+00
(PID.TID 0000.0001)  ploadbar=  1.01044362520385E+05
 cg2d: Sum(rhs),rhsMax =  -7.59569517860213E+01  1.74690682741746E+00
(PID.TID 0000.0001)  ploadbar=  1.01044772393056E+05
 cg2d: Sum(rhs),rhsMax =  -7.61060722068961E+01  1.74280174830160E+00
(PID.TID 0000.0001)  ploadbar=  1.01045182265727E+05
 cg2d: Sum(rhs),rhsMax =  -7.63039881173894E+01  1.73762361627321E+00
(PID.TID 0000.0001)  ploadbar=  1.01045592138397E+05
 cg2d: Sum(rhs),rhsMax =  -7.65403550381495E+01  1.73162366876270E+00
(PID.TID 0000.0001)  ploadbar=  1.01046002011068E+05
 cg2d: Sum(rhs),rhsMax =  -7.68212416416393E+01  1.72467919531760E+00
(PID.TID 0000.0001)  ploadbar=  1.01046411883738E+05
 cg2d: Sum(rhs),rhsMax =  -7.71505900951649E+01  1.71671605341888E+00
(PID.TID 0000.0001)  ploadbar=  1.01046821756409E+05
 cg2d: Sum(rhs),rhsMax =  -7.74480835000428E+01  1.70951514891529E+00
(PID.TID 0000.0001)  ploadbar=  1.01047566950099E+05
 cg2d: Sum(rhs),rhsMax =  -7.76992175279171E+01  1.70336832300519E+00
(PID.TID 0000.0001)  ploadbar=  1.01048312143789E+05
 cg2d: Sum(rhs),rhsMax =  -7.79189409999200E+01  1.69792673661980E+00
(PID.TID 0000.0001)  ploadbar=  1.01049057337479E+05
 cg2d: Sum(rhs),rhsMax =  -7.81682639054769E+01  1.69185778763733E+00
(PID.TID 0000.0001)  ploadbar=  1.01049802531169E+05
 cg2d: Sum(rhs),rhsMax =  -7.84568295687173E+01  1.68496701460855E+00
(PID.TID 0000.0001)  ploadbar=  1.01050547724859E+05
 cg2d: Sum(rhs),rhsMax =  -7.87934237537918E+01  1.67708601201426E+00
(PID.TID 0000.0001)  ploadbar=  1.01051292918549E+05
 cg2d: Sum(rhs),rhsMax =  -7.91210865906788E+01  1.66950741034900E+00
(PID.TID 0000.0001)  ploadbar=  1.01052884073538E+05
 cg2d: Sum(rhs),rhsMax =  -7.94861696224010E+01  1.66124439105224E+00
(PID.TID 0000.0001)  ploadbar=  1.01054475228527E+05
 cg2d: Sum(rhs),rhsMax =  -7.98496669681294E+01  1.65311954952422E+00
(PID.TID 0000.0001)  ploadbar=  1.01056066383516E+05
 cg2d: Sum(rhs),rhsMax =  -8.02359091074438E+01  1.64462830923791E+00
(PID.TID 0000.0001)  ploadbar=  1.01057657538505E+05
 cg2d: Sum(rhs),rhsMax =  -8.06164618371179E+01  1.63635565434435E+00
(PID.TID 0000.0001)  ploadbar=  1.01059248693494E+05
 cg2d: Sum(rhs),rhsMax =  -8.09698893781170E+01  1.62872572967971E+00
(PID.TID 0000.0001)  ploadbar=  1.01060839848483E+05
 cg2d: Sum(rhs),rhsMax =  -8.13074965304430E+01  1.62144017282308E+00
(PID.TID 0000.0001)  ploadbar=  1.01061749616573E+05
 cg2d: Sum(rhs),rhsMax =  -8.15854227853404E+01  1.61535401261506E+00
(PID.TID 0000.0001)  ploadbar=  1.01062659384663E+05
 cg2d: Sum(rhs),rhsMax =  -8.18059167696070E+01  1.61039187278809E+00
(PID.TID 0000.0001)  ploadbar=  1.01063569152753E+05
 cg2d: Sum(rhs),rhsMax =  -8.19782097663263E+01  1.60634773757055E+00
(PID.TID 0000.0001)  ploadbar=  1.01064478920842E+05
 cg2d: Sum(rhs),rhsMax =  -8.21154313116631E+01  1.60295026711208E+00
(PID.TID 0000.0001)  ploadbar=  1.01065388688932E+05
 cg2d: Sum(rhs),rhsMax =  -8.22312183046320E+01  1.59992115961618E+00
(PID.TID 0000.0001)  ploadbar=  1.01066298457022E+05
 cg2d: Sum(rhs),rhsMax =  -8.23418618687155E+01  1.59703938391631E+00
(PID.TID 0000.0001)  ploadbar=  1.01066706312671E+05
 cg2d: Sum(rhs),rhsMax =  -8.24217892673687E+01  1.59479602048267E+00
(PID.TID 0000.0001)  ploadbar=  1.01067114168320E+05
 cg2d: Sum(rhs),rhsMax =  -8.25461219362809E+01  1.59173686190376E+00
(PID.TID 0000.0001)  ploadbar=  1.01067522023968E+05
 cg2d: Sum(rhs),rhsMax =  -8.27274175674311E+01  1.58762720610121E+00
(PID.TID 0000.0001)  ploadbar=  1.01067929879617E+05
 cg2d: Sum(rhs),rhsMax =  -8.29630033096804E+01  1.58252662660246E+00
(PID.TID 0000.0001)  ploadbar=  1.01068337735266E+05
 cg2d: Sum(rhs),rhsMax =  -8.32505213883161E+01  1.57648691216120E+00
(PID.TID 0000.0001)  ploadbar=  1.01068745590915E+05
 cg2d: Sum(rhs),rhsMax =  -8.35236201150139E+01  1.57075921439672E+00
(PID.TID 0000.0001)  ploadbar=  1.01068221942273E+05
 cg2d: Sum(rhs),rhsMax =  -8.37959581557561E+01  1.56507484144931E+00
(PID.TID 0000.0001)  ploadbar=  1.01067698293631E+05
 cg2d: Sum(rhs),rhsMax =  -8.40517389659965E+01  1.55972607368835E+00
(PID.TID 0000.0001)  ploadbar=  1.01067174644989E+05
 cg2d: Sum(rhs),rhsMax =  -8.42793526483446E+01  1.55492262214639E+00
(PID.TID 0000.0001)  ploadbar=  1.01066650996348E+05
 cg2d: Sum(rhs),rhsMax =  -8.44737626674233E+01  1.55074606399759E+00
(PID.TID 0000.0001)  ploadbar=  1.01066127347706E+05
 cg2d: Sum(rhs),rhsMax =  -8.46370868876080E+01  1.54714654294394E+00
(PID.TID 0000.0001)  ploadbar=  1.01065603699064E+05
 cg2d: Sum(rhs),rhsMax =  -8.47602351929888E+01  1.54435367079767E+00
(PID.TID 0000.0001)  ploadbar=  1.01065268419311E+05
 cg2d: Sum(rhs),rhsMax =  -8.48561414413430E+01  1.54211393328129E+00
(PID.TID 0000.0001)  ploadbar=  1.01064933139557E+05
 cg2d: Sum(rhs),rhsMax =  -8.49448918159793E+01  1.54005105214915E+00
(PID.TID 0000.0001)  ploadbar=  1.01064597859804E+05
 cg2d: Sum(rhs),rhsMax =  -8.50389897478370E+01  1.53793332602901E+00
(PID.TID 0000.0001)  ploadbar=  1.01064262580051E+05
 cg2d: Sum(rhs),rhsMax =  -8.51434343874360E+01  1.53566711861665E+00
(PID.TID 0000.0001)  ploadbar=  1.01063927300298E+05
 cg2d: Sum(rhs),rhsMax =  -8.52898541384776E+01  1.53268091969285E+00
(PID.TID 0000.0001)  ploadbar=  1.01063592020545E+05
 cg2d: Sum(rhs),rhsMax =  -8.55294257631176E+01  1.52800474657389E+00
(PID.TID 0000.0001)  ploadbar=  1.01063234565544E+05
 cg2d: Sum(rhs),rhsMax =  -8.58433258721273E+01  1.52199930794249E+00
(PID.TID 0000.0001)  ploadbar=  1.01062877110543E+05
 cg2d: Sum(rhs),rhsMax =  -8.62285794017829E+01  1.51474157204684E+00
(PID.TID 0000.0001)  ploadbar=  1.01062519655542E+05
 cg2d: Sum(rhs),rhsMax =  -8.66805331522224E+01  1.50634166625871E+00
(PID.TID 0000.0001)  ploadbar=  1.01062162200541E+05
 cg2d: Sum(rhs),rhsMax =  -8.71927182140680E+01  1.49694162918450E+00
(PID.TID 0000.0001)  ploadbar=  1.01061804745539E+05
 cg2d: Sum(rhs),rhsMax =  -8.77606844535455E+01  1.48665053359439E+00
(PID.TID 0000.0001)  ploadbar=  1.01061447290538E+05
 cg2d: Sum(rhs),rhsMax =  -8.83829733003831E+01  1.47562525048749E+00
(PID.TID 0000.0001)  ploadbar=  1.01061434724580E+05
 cg2d: Sum(rhs),rhsMax =  -8.90887620929358E+01  1.46341750383212E+00
(PID.TID 0000.0001)  ploadbar=  1.01061422158622E+05
 cg2d: Sum(rhs),rhsMax =  -8.98127738835488E+01  1.45113814595985E+00
(PID.TID 0000.0001)  ploadbar=  1.01061409592664E+05
 cg2d: Sum(rhs),rhsMax =  -9.04827074301082E+01  1.43993981088079E+00
(PID.TID 0000.0001)  ploadbar=  1.01061397026705E+05
 cg2d: Sum(rhs),rhsMax =  -9.12244810739201E+01  1.42779765847721E+00
(PID.TID 0000.0001)  ploadbar=  1.01061384460747E+05
 cg2d: Sum(rhs),rhsMax =  -9.19526084775625E+01  1.41607069422370E+00
(PID.TID 0000.0001)  ploadbar=  1.01061371894789E+05
 cg2d: Sum(rhs),rhsMax =  -9.26951853595178E+01  1.40430450156558E+00
(PID.TID 0000.0001)  ploadbar=  1.01060543662697E+05
 cg2d: Sum(rhs),rhsMax =  -9.34555398049351E+01  1.39245154641745E+00
(PID.TID 0000.0001)  ploadbar=  1.01059715430606E+05
 cg2d: Sum(rhs),rhsMax =  -9.42287504256104E+01  1.38059211998002E+00
(PID.TID 0000.0001)  ploadbar=  1.01058887198514E+05
 cg2d: Sum(rhs),rhsMax =  -9.50125667078110E+01  1.36876417062573E+00
(PID.TID 0000.0001)  ploadbar=  1.01058058966423E+05
 cg2d: Sum(rhs),rhsMax =  -9.58050898477913E+01  1.35699926830446E+00
(PID.TID 0000.0001)  ploadbar=  1.01057230734331E+05
 cg2d: Sum(rhs),rhsMax =  -9.66036736516982E+01  1.34533320547808E+00
(PID.TID 0000.0001)  ploadbar=  1.01056402502239E+05
 cg2d: Sum(rhs),rhsMax =  -9.73318485452054E+01  1.33486102213832E+00
(PID.TID 0000.0001)  ploadbar=  1.01055727605672E+05
 cg2d: Sum(rhs),rhsMax =  -9.80892852521291E+01  1.32417404466386E+00
(PID.TID 0000.0001)  ploadbar=  1.01055052709105E+05
 cg2d: Sum(rhs),rhsMax =  -9.89021675094529E+01  1.31293180887515E+00
(PID.TID 0000.0001)  ploadbar=  1.01054377812538E+05
 cg2d: Sum(rhs),rhsMax =  -9.97889598671111E+01  1.30092080065586E+00
(PID.TID 0000.0001)  ploadbar=  1.01053702915971E+05
 cg2d: Sum(rhs),rhsMax =  -1.01045102125218E+02  1.28441794011171E+00
(PID.TID 0000.0001)  ploadbar=  1.01053028019404E+05
 cg2d: Sum(rhs),rhsMax =  -1.02333344972023E+02  1.26793279417998E+00
(PID.TID 0000.0001)  ploadbar=  1.01052353122837E+05
 cg2d: Sum(rhs),rhsMax =  -1.03570861592308E+02  1.25244923918855E+00
(PID.TID 0000.0001)  ploadbar=  1.01051792559225E+05
 cg2d: Sum(rhs),rhsMax =  -1.04788446023858E+02  1.23753954884300E+00
(PID.TID 0000.0001)  ploadbar=  1.01051231995613E+05
 cg2d: Sum(rhs),rhsMax =  -1.05979420645701E+02  1.22324930013125E+00
(PID.TID 0000.0001)  ploadbar=  1.01050671432002E+05
 cg2d: Sum(rhs),rhsMax =  -1.07159207086318E+02  1.20936857360545E+00
(PID.TID 0000.0001)  ploadbar=  1.01050110868390E+05
 cg2d: Sum(rhs),rhsMax =  -1.08302695758575E+02  1.19615260334054E+00
(PID.TID 0000.0001)  ploadbar=  1.01049550304778E+05
 cg2d: Sum(rhs),rhsMax =  -1.09499643823031E+02  1.18259512846220E+00
(PID.TID 0000.0001)  ploadbar=  1.01048989741166E+05
 cg2d: Sum(rhs),rhsMax =  -1.10728213347380E+02  1.16904920175357E+00
(PID.TID 0000.0001)  ploadbar=  1.01049103599286E+05
 cg2d: Sum(rhs),rhsMax =  -1.11652898771088E+02  1.15899444062892E+00
(PID.TID 0000.0001)  ploadbar=  1.01049217457407E+05
 cg2d: Sum(rhs),rhsMax =  -1.11231306990373E+02  1.16305758422953E+00
(PID.TID 0000.0001)  ploadbar=  1.01049331315526E+05
 cg2d: Sum(rhs),rhsMax =  -1.10904471905972E+02  1.16619186985580E+00
(PID.TID 0000.0001)  ploadbar=  1.01049445173646E+05
 cg2d: Sum(rhs),rhsMax =  -1.10685453745209E+02  1.16823533759772E+00
(PID.TID 0000.0001)  ploadbar=  1.01049559031767E+05
 cg2d: Sum(rhs),rhsMax =  -1.10568316770689E+02  1.16923309296559E+00
(PID.TID 0000.0001)  ploadbar=  1.01049672889887E+05
 cg2d: Sum(rhs),rhsMax =  -1.10583297529601E+02  1.16882657548160E+00
(PID.TID 0000.0001)  ploadbar=  1.01049323099528E+05
 cg2d: Sum(rhs),rhsMax =  -1.10570955795758E+02  1.16869810524713E+00
(PID.TID 0000.0001)  ploadbar=  1.01048973309170E+05
 cg2d: Sum(rhs),rhsMax =  -1.10577105116228E+02  1.16836216911263E+00
(PID.TID 0000.0001)  ploadbar=  1.01048623518812E+05
 cg2d: Sum(rhs),rhsMax =  -1.10638504658660E+02  1.16743212291824E+00
(PID.TID 0000.0001)  ploadbar=  1.01048273728454E+05
 cg2d: Sum(rhs),rhsMax =  -1.10751146849940E+02  1.16595479053356E+00
(PID.TID 0000.0001)  ploadbar=  1.01047923938096E+05
 cg2d: Sum(rhs),rhsMax =  -1.10926294707631E+02  1.16381457022397E+00
(PID.TID 0000.0001)  ploadbar=  1.01047574147737E+05
 cg2d: Sum(rhs),rhsMax =  -1.11211286398480E+02  1.16059509988931E+00
(PID.TID 0000.0001)  ploadbar=  1.01046111787836E+05
 cg2d: Sum(rhs),rhsMax =  -1.11501182331066E+02  1.15738977977695E+00
(PID.TID 0000.0001)  ploadbar=  1.01044649427934E+05
 cg2d: Sum(rhs),rhsMax =  -1.11811015478735E+02  1.15403852267452E+00
(PID.TID 0000.0001)  ploadbar=  1.01043187068032E+05
 cg2d: Sum(rhs),rhsMax =  -1.12146561533789E+02  1.15048284363393E+00
(PID.TID 0000.0001)  ploadbar=  1.01041724708130E+05
 cg2d: Sum(rhs),rhsMax =  -1.12511229186793E+02  1.14669144589157E+00
(PID.TID 0000.0001)  ploadbar=  1.01040262348228E+05
 cg2d: Sum(rhs),rhsMax =  -1.12911974523373E+02  1.14259794468183E+00
(PID.TID 0000.0001)  ploadbar=  1.01038799988327E+05
 cg2d: Sum(rhs),rhsMax =  -1.13366135973657E+02  1.13795633927874E+00
(PID.TID 0000.0001)  ploadbar=  1.01037923058345E+05
 cg2d: Sum(rhs),rhsMax =  -1.13493994742071E+02  1.13656388083185E+00
(PID.TID 0000.0001)  ploadbar=  1.01037046128363E+05
 cg2d: Sum(rhs),rhsMax =  -1.14356678645036E+02  1.12783079680528E+00
(PID.TID 0000.0001)  ploadbar=  1.01036169198381E+05
 cg2d: Sum(rhs),rhsMax =  -1.12015857887758E+02  1.15118247046799E+00
(PID.TID 0000.0001)  ploadbar=  1.01035292268399E+05
 cg2d: Sum(rhs),rhsMax =  -1.07170535320923E+02  1.20294304900064E+00
(PID.TID 0000.0001)  ploadbar=  1.01034415338417E+05
 cg2d: Sum(rhs),rhsMax =  -1.02748439821456E+02  1.25435126006317E+00
(PID.TID 0000.0001)  ploadbar=  1.01033538408435E+05
 cg2d: Sum(rhs),rhsMax =  -9.91781504522454E+01  1.29914238670559E+00
(PID.TID 0000.0001)  ploadbar=  1.01033319028179E+05
 cg2d: Sum(rhs),rhsMax =  -9.65868709946590E+01  1.33363467865973E+00
(PID.TID 0000.0001)  ploadbar=  1.01033099647924E+05
 cg2d: Sum(rhs),rhsMax =  -9.67361324551564E+01  1.33122129420075E+00
(PID.TID 0000.0001)  ploadbar=  1.01032880267668E+05
 cg2d: Sum(rhs),rhsMax =  -9.69784652105404E+01  1.32753882207612E+00
(PID.TID 0000.0001)  ploadbar=  1.01032660887413E+05
 cg2d: Sum(rhs),rhsMax =  -9.71300424400492E+01  1.32510321440831E+00
(PID.TID 0000.0001)  ploadbar=  1.01032441507157E+05
 cg2d: Sum(rhs),rhsMax =  -9.70734273918943E+01  1.32549747236139E+00
(PID.TID 0000.0001)  ploadbar=  1.01032222126901E+05
 cg2d: Sum(rhs),rhsMax =  -9.70749793585050E+01  1.32507943168655E+00
(PID.TID 0000.0001)  ploadbar=  1.01031015167768E+05
 cg2d: Sum(rhs),rhsMax =  -9.72290737131917E+01  1.32256155365374E+00
(PID.TID 0000.0001)  ploadbar=  1.01029808208634E+05
 cg2d: Sum(rhs),rhsMax =  -9.76578589699114E+01  1.31631893577053E+00
(PID.TID 0000.0001)  ploadbar=  1.01028601249500E+05
 cg2d: Sum(rhs),rhsMax =  -9.47108521078532E+01  1.35680806406908E+00
(PID.TID 0000.0001)  ploadbar=  1.01027394290366E+05
 cg2d: Sum(rhs),rhsMax =  -9.18964508621775E+01  1.39785831184444E+00
(PID.TID 0000.0001)  ploadbar=  1.01026187331232E+05
 cg2d: Sum(rhs),rhsMax =  -8.92995563885284E+01  1.43797383881745E+00
(PID.TID 0000.0001)  ploadbar=  1.01024980372098E+05
 cg2d: Sum(rhs),rhsMax =  -8.68844421280046E+01  1.47744611063324E+00
(PID.TID 0000.0001)  ploadbar=  1.01024086577425E+05
 cg2d: Sum(rhs),rhsMax =  -8.46720846594424E+01  1.51557261993441E+00
(PID.TID 0000.0001)  ploadbar=  1.01023192782753E+05
 cg2d: Sum(rhs),rhsMax =  -8.26914074537855E+01  1.55141545955034E+00
(PID.TID 0000.0001)  ploadbar=  1.01022298988080E+05
 cg2d: Sum(rhs),rhsMax =  -8.09697307755181E+01  1.58396332797902E+00
(PID.TID 0000.0001)  ploadbar=  1.01021405193407E+05
 cg2d: Sum(rhs),rhsMax =  -7.97216421123852E+01  1.60834218629588E+00
(PID.TID 0000.0001)  ploadbar=  1.01020511398735E+05
 cg2d: Sum(rhs),rhsMax =  -7.90569215118377E+01  1.62147060378849E+00
(PID.TID 0000.0001)  ploadbar=  1.01019617604062E+05
 cg2d: Sum(rhs),rhsMax =  -7.85389754587962E+01  1.63174218732694E+00
(PID.TID 0000.0001)  ploadbar=  1.01018880016955E+05
 cg2d: Sum(rhs),rhsMax =  -7.80275523035037E+01  1.64198082058012E+00
(PID.TID 0000.0001)  ploadbar=  1.01018142429847E+05
 cg2d: Sum(rhs),rhsMax =  -7.75172213851389E+01  1.65229265794350E+00
(PID.TID 0000.0001)  ploadbar=  1.01017404842739E+05
 cg2d: Sum(rhs),rhsMax =  -7.70618544057583E+01  1.66151192504536E+00
(PID.TID 0000.0001)  ploadbar=  1.01016667255632E+05
 cg2d: Sum(rhs),rhsMax =  -7.69520735171738E+01  1.66328832579926E+00
(PID.TID 0000.0001)  ploadbar=  1.01015929668524E+05
 cg2d: Sum(rhs),rhsMax =  -7.70576334445256E+01  1.66036000194011E+00
(PID.TID 0000.0001)  ploadbar=  1.01015192081417E+05
 cg2d: Sum(rhs),rhsMax =  -7.72938088147984E+01  1.65468554484888E+00
(PID.TID 0000.0001)  ploadbar=  1.01014828593766E+05
 cg2d: Sum(rhs),rhsMax =  -7.77159283143250E+01  1.64514405249591E+00
(PID.TID 0000.0001)  ploadbar=  1.01014465106115E+05
 cg2d: Sum(rhs),rhsMax =  -7.85050651165892E+01  1.62809516281515E+00
(PID.TID 0000.0001)  ploadbar=  1.01014101618464E+05
 cg2d: Sum(rhs),rhsMax =  -7.91790438555484E+01  1.61375781617603E+00
(PID.TID 0000.0001)  ploadbar=  1.01013738130813E+05
 cg2d: Sum(rhs),rhsMax =  -7.98359945280469E+01  1.60002396101315E+00
(PID.TID 0000.0001)  ploadbar=  1.01013374643162E+05
 cg2d: Sum(rhs),rhsMax =  -8.04460907277313E+01  1.58744846025646E+00
(PID.TID 0000.0001)  ploadbar=  1.01013011155510E+05
 cg2d: Sum(rhs),rhsMax =  -7.99467859809872E+01  1.59694542230764E+00
(PID.TID 0000.0001)  ploadbar=  1.01012523228494E+05
 cg2d: Sum(rhs),rhsMax =  -8.04299210809397E+01  1.58696251564487E+00
(PID.TID 0000.0001)  ploadbar=  1.01012035301478E+05
 cg2d: Sum(rhs),rhsMax =  -8.08785853550158E+01  1.57779530866459E+00
(PID.TID 0000.0001)  ploadbar=  1.01011547374462E+05
 cg2d: Sum(rhs),rhsMax =  -8.12780852153608E+01  1.56969998344136E+00
(PID.TID 0000.0001)  ploadbar=  1.01011059447446E+05
 cg2d: Sum(rhs),rhsMax =  -8.16183543572063E+01  1.56283630863559E+00
(PID.TID 0000.0001)  ploadbar=  1.01010571520430E+05
 cg2d: Sum(rhs),rhsMax =  -8.18980181592024E+01  1.55719861975336E+00
(PID.TID 0000.0001)  ploadbar=  1.01010083593413E+05
 cg2d: Sum(rhs),rhsMax =  -8.21211875120866E+01  1.55268941059509E+00
(PID.TID 0000.0001)  ploadbar=  1.01009811659654E+05
 cg2d: Sum(rhs),rhsMax =  -8.22858429720176E+01  1.54931324091168E+00
(PID.TID 0000.0001)  ploadbar=  1.01009539725895E+05
 cg2d: Sum(rhs),rhsMax =  -8.24397699488131E+01  1.54615226848842E+00
(PID.TID 0000.0001)  ploadbar=  1.01009267792136E+05
 cg2d: Sum(rhs),rhsMax =  -8.26418023637161E+01  1.54210405285296E+00
(PID.TID 0000.0001)  ploadbar=  1.01008995858376E+05
 cg2d: Sum(rhs),rhsMax =  -8.29340842928856E+01  1.53639762326498E+00
(PID.TID 0000.0001)  ploadbar=  1.01008723924617E+05
 cg2d: Sum(rhs),rhsMax =  -8.32731665565674E+01  1.52986249625703E+00
(PID.TID 0000.0001)  ploadbar=  1.01008451990858E+05
 cg2d: Sum(rhs),rhsMax =  -8.34612516197552E+01  1.52610661549525E+00
(PID.TID 0000.0001)  ploadbar=  1.01008382831036E+05
 cg2d: Sum(rhs),rhsMax =  -8.34953633320634E+01  1.52513741896503E+00
(PID.TID 0000.0001)  ploadbar=  1.01008313671213E+05
 cg2d: Sum(rhs),rhsMax =  -8.33945283426314E+01  1.52659169639193E+00
(PID.TID 0000.0001)  ploadbar=  1.01008244511391E+05
 cg2d: Sum(rhs),rhsMax =  -8.32796358691356E+01  1.52825952104636E+00
(PID.TID 0000.0001)  ploadbar=  1.01008175351569E+05
 cg2d: Sum(rhs),rhsMax =  -8.32047790349696E+01  1.52914423992367E+00
(PID.TID 0000.0001)  ploadbar=  1.01008106191747E+05
 cg2d: Sum(rhs),rhsMax =  -8.32122978433041E+01  1.52846034919819E+00
(PID.TID 0000.0001)  ploadbar=  1.01008037031924E+05
 cg2d: Sum(rhs),rhsMax =  -8.32850319225377E+01  1.52660168760960E+00
(PID.TID 0000.0001)  ploadbar=  1.01008266635890E+05
 cg2d: Sum(rhs),rhsMax =  -8.34282887398175E+01  1.52347540227265E+00
(PID.TID 0000.0001)  ploadbar=  1.01008496239856E+05
 cg2d: Sum(rhs),rhsMax =  -8.36199971515321E+01  1.51949496212825E+00
(PID.TID 0000.0001)  ploadbar=  1.01008725843821E+05
 cg2d: Sum(rhs),rhsMax =  -8.38376854539354E+01  1.51507022161384E+00
(PID.TID 0000.0001)  ploadbar=  1.01008955447787E+05
 cg2d: Sum(rhs),rhsMax =  -8.40934200738757E+01  1.50998056207488E+00
(PID.TID 0000.0001)  ploadbar=  1.01009185051752E+05
 cg2d: Sum(rhs),rhsMax =  -8.42944050205664E+01  1.50588083971665E+00
(PID.TID 0000.0001)  ploadbar=  1.01009414655718E+05
 cg2d: Sum(rhs),rhsMax =  -8.43917560720056E+01  1.50362980004418E+00
(PID.TID 0000.0001)  ploadbar=  1.01010056195046E+05
 cg2d: Sum(rhs),rhsMax =  -8.43799837892364E+01  1.50330446043016E+00
(PID.TID 0000.0001)  ploadbar=  1.01010697734373E+05
 cg2d: Sum(rhs),rhsMax =  -8.42927318094881E+01  1.50429924292941E+00
(PID.TID 0000.0001)  ploadbar=  1.01011339273701E+05
 cg2d: Sum(rhs),rhsMax =  -8.41847365687784E+01  1.50563682478080E+00
(PID.TID 0000.0001)  ploadbar=  1.01011980813028E+05
 cg2d: Sum(rhs),rhsMax =  -8.41148516859798E+01  1.50626393963151E+00
(PID.TID 0000.0001)  ploadbar=  1.01012622352356E+05
 cg2d: Sum(rhs),rhsMax =  -8.41262507976102E+01  1.50540507882067E+00
(PID.TID 0000.0001)  ploadbar=  1.01013263891684E+05
 cg2d: Sum(rhs),rhsMax =  -8.42213684718010E+01  1.50308993118425E+00
(PID.TID 0000.0001)  ploadbar=  1.01012232561383E+05
 cg2d: Sum(rhs),rhsMax =  -8.44170146668035E+01  1.49902146494180E+00
(PID.TID 0000.0001)  ploadbar=  1.01011201231082E+05
 cg2d: Sum(rhs),rhsMax =  -8.47101140663715E+01  1.49327623557426E+00
(PID.TID 0000.0001)  ploadbar=  1.01010169900781E+05
 cg2d: Sum(rhs),rhsMax =  -8.51411842358546E+01  1.48517711698776E+00
(PID.TID 0000.0001)  ploadbar=  1.01009138570481E+05
 cg2d: Sum(rhs),rhsMax =  -8.57325468223064E+01  1.47440801300931E+00
(PID.TID 0000.0001)  ploadbar=  1.01008107240180E+05
 cg2d: Sum(rhs),rhsMax =  -8.64438028828434E+01  1.46175921644521E+00
(PID.TID 0000.0001)  ploadbar=  1.01007075909879E+05
 cg2d: Sum(rhs),rhsMax =  -8.70338274071803E+01  1.45129681330416E+00
(PID.TID 0000.0001)  ploadbar=  1.01007186082476E+05
 cg2d: Sum(rhs),rhsMax =  -8.74656552895463E+01  1.44353914663250E+00
(PID.TID 0000.0001)  ploadbar=  1.01007296255073E+05
 cg2d: Sum(rhs),rhsMax =  -8.77260604801711E+01  1.43861923630737E+00
(PID.TID 0000.0001)  ploadbar=  1.01007406427669E+05
 cg2d: Sum(rhs),rhsMax =  -8.78685060906901E+01  1.43560468639656E+00
(PID.TID 0000.0001)  ploadbar=  1.01007516600266E+05
 cg2d: Sum(rhs),rhsMax =  -8.79643937421329E+01  1.43330653601730E+00
(PID.TID 0000.0001)  ploadbar=  1.01007626772863E+05
 cg2d: Sum(rhs),rhsMax =  -8.77353543090253E+01  1.43625835534385E+00
(PID.TID 0000.0001)  ploadbar=  1.01007736945460E+05
 cg2d: Sum(rhs),rhsMax =  -8.72795343256292E+01  1.44300828486593E+00
(PID.TID 0000.0001)  ploadbar=  1.01007281256670E+05
 cg2d: Sum(rhs),rhsMax =  -8.69013094424994E+01  1.44857442251874E+00
(PID.TID 0000.0001)  ploadbar=  1.01006825567880E+05
 cg2d: Sum(rhs),rhsMax =  -8.65976174673639E+01  1.45297393538110E+00
(PID.TID 0000.0001)  ploadbar=  1.01006369879090E+05
 cg2d: Sum(rhs),rhsMax =  -8.63575998288380E+01  1.45636117984558E+00
(PID.TID 0000.0001)  ploadbar=  1.01005914190300E+05
 cg2d: Sum(rhs),rhsMax =  -8.61895709743953E+01  1.45857330168203E+00
(PID.TID 0000.0001)  ploadbar=  1.01005458501511E+05
 cg2d: Sum(rhs),rhsMax =  -8.61577620831421E+01  1.45850089890042E+00
(PID.TID 0000.0001)  ploadbar=  1.01005002812721E+05
 cg2d: Sum(rhs),rhsMax =  -8.61269109073614E+01  1.45841857279439E+00
(PID.TID 0000.0001)  ploadbar=  1.01005219681516E+05
 cg2d: Sum(rhs),rhsMax =  -8.61476424683492E+01  1.45745975600381E+00
(PID.TID 0000.0001)  ploadbar=  1.01005436550310E+05
 cg2d: Sum(rhs),rhsMax =  -8.62100077435766E+01  1.45579109835151E+00
(PID.TID 0000.0001)  ploadbar=  1.01005653419105E+05
 cg2d: Sum(rhs),rhsMax =  -8.63095301655894E+01  1.45348827688311E+00
(PID.TID 0000.0001)  ploadbar=  1.01005870287900E+05
 cg2d: Sum(rhs),rhsMax =  -8.38971377455696E+01  1.49462820114917E+00
(PID.TID 0000.0001)  ploadbar=  1.01006087156695E+05
 cg2d: Sum(rhs),rhsMax =  -8.18732438536037E+01  1.53089201159907E+00
(PID.TID 0000.0001)  ploadbar=  1.01006304025489E+05
 cg2d: Sum(rhs),rhsMax =  -8.01650169665745E+01  1.56286626272197E+00
(PID.TID 0000.0001)  ploadbar=  1.01006653888064E+05
 cg2d: Sum(rhs),rhsMax =  -7.87691672265319E+01  1.58994584838470E+00
(PID.TID 0000.0001)  ploadbar=  1.01007003750640E+05
 cg2d: Sum(rhs),rhsMax =  -7.76152637992123E+01  1.61299774289513E+00
(PID.TID 0000.0001)  ploadbar=  1.01007353613215E+05
 cg2d: Sum(rhs),rhsMax =  -7.66905303059908E+01  1.63189062240457E+00
(PID.TID 0000.0001)  ploadbar=  1.01007703475790E+05
 cg2d: Sum(rhs),rhsMax =  -7.59528363568156E+01  1.64720965518754E+00
(PID.TID 0000.0001)  ploadbar=  1.01008053338366E+05
 cg2d: Sum(rhs),rhsMax =  -7.53632948352461E+01  1.65959221120969E+00
(PID.TID 0000.0001)  ploadbar=  1.01008403200941E+05
 cg2d: Sum(rhs),rhsMax =  -7.48414076057358E+01  1.67063231219932E+00
(PID.TID 0000.0001)  ploadbar=  1.01008588573197E+05
 cg2d: Sum(rhs),rhsMax =  -7.43787821410367E+01  1.68045281072367E+00
(PID.TID 0000.0001)  ploadbar=  1.01008773945453E+05
 cg2d: Sum(rhs),rhsMax =  -7.39750930014859E+01  1.68901053026487E+00
(PID.TID 0000.0001)  ploadbar=  1.01008959317708E+05
 cg2d: Sum(rhs),rhsMax =  -7.36363562976855E+01  1.69612244457839E+00
(PID.TID 0000.0001)  ploadbar=  1.01009144689964E+05
 cg2d: Sum(rhs),rhsMax =  -7.34295806924334E+01  1.70019358706489E+00
(PID.TID 0000.0001)  ploadbar=  1.01009330062220E+05
 cg2d: Sum(rhs),rhsMax =  -7.34414317615373E+01  1.69916531491978E+00
(PID.TID 0000.0001)  ploadbar=  1.01009515434476E+05
 cg2d: Sum(rhs),rhsMax =  -7.35759319236454E+01  1.69534404010615E+00
(PID.TID 0000.0001)  ploadbar=  1.01009338117609E+05
 cg2d: Sum(rhs),rhsMax =  -7.38238536061277E+01  1.68896778106148E+00
(PID.TID 0000.0001)  ploadbar=  1.01009160800742E+05
 cg2d: Sum(rhs),rhsMax =  -7.41129200115309E+01  1.68172490902009E+00
(PID.TID 0000.0001)  ploadbar=  1.01008983483875E+05
 cg2d: Sum(rhs),rhsMax =  -7.43481350646060E+01  1.67576808642290E+00
(PID.TID 0000.0001)  ploadbar=  1.01008806167008E+05
 cg2d: Sum(rhs),rhsMax =  -7.45779802359929E+01  1.66997512703763E+00
(PID.TID 0000.0001)  ploadbar=  1.01008628850141E+05
 cg2d: Sum(rhs),rhsMax =  -7.47742462354782E+01  1.66496267265026E+00
(PID.TID 0000.0001)  ploadbar=  1.01008451533274E+05
 cg2d: Sum(rhs),rhsMax =  -7.49389906257660E+01  1.66066197116573E+00
(PID.TID 0000.0001)  ploadbar=  1.01008344920993E+05
 cg2d: Sum(rhs),rhsMax =  -7.50469606313985E+01  1.65761718425090E+00
(PID.TID 0000.0001)  ploadbar=  1.01008238308713E+05
 cg2d: Sum(rhs),rhsMax =  -7.50574598290169E+01  1.65671149495375E+00
(PID.TID 0000.0001)  ploadbar=  1.01008131696432E+05
 cg2d: Sum(rhs),rhsMax =  -7.48405892637632E+01  1.66081716287917E+00
(PID.TID 0000.0001)  ploadbar=  1.01008025084151E+05
 cg2d: Sum(rhs),rhsMax =  -7.47011975772068E+01  1.66320266777879E+00
(PID.TID 0000.0001)  ploadbar=  1.01007918471871E+05
 cg2d: Sum(rhs),rhsMax =  -7.46608721051104E+01  1.66337477186920E+00
(PID.TID 0000.0001)  ploadbar=  1.01007811859590E+05
 cg2d: Sum(rhs),rhsMax =  -7.46825209307232E+01  1.66223365161581E+00
(PID.TID 0000.0001)  ploadbar=  1.01006176724662E+05
 cg2d: Sum(rhs),rhsMax =  -7.47601618696233E+01  1.65989969322045E+00
(PID.TID 0000.0001)  ploadbar=  1.01004541589734E+05
 cg2d: Sum(rhs),rhsMax =  -7.48615668434999E+01  1.65708591405370E+00
(PID.TID 0000.0001)  ploadbar=  1.01002906454807E+05
 cg2d: Sum(rhs),rhsMax =  -7.49820884413720E+01  1.65389661284417E+00
(PID.TID 0000.0001)  ploadbar=  1.01001271319879E+05
 cg2d: Sum(rhs),rhsMax =  -7.51171785871536E+01  1.65043353382933E+00
(PID.TID 0000.0001)  ploadbar=  1.00999636184951E+05
 cg2d: Sum(rhs),rhsMax =  -7.52205165158154E+01  1.64771185194661E+00
(PID.TID 0000.0001)  ploadbar=  1.00998001050023E+05
 cg2d: Sum(rhs),rhsMax =  -7.52879351198653E+01  1.64575436767637E+00
(PID.TID 0000.0001)  ploadbar=  1.00997569634129E+05
 cg2d: Sum(rhs),rhsMax =  -7.43686967710032E+01  1.66557309540554E+00
(PID.TID 0000.0001)  ploadbar=  1.00997138218234E+05
 cg2d: Sum(rhs),rhsMax =  -7.34550021685971E+01  1.68572128226055E+00
(PID.TID 0000.0001)  ploadbar=  1.00996706802340E+05
 cg2d: Sum(rhs),rhsMax =  -7.25861260979703E+01  1.70527825015225E+00
(PID.TID 0000.0001)  ploadbar=  1.00996275386445E+05
 cg2d: Sum(rhs),rhsMax =  -7.17548235066141E+01  1.72435857048452E+00
(PID.TID 0000.0001)  ploadbar=  1.00995843970551E+05
 cg2d: Sum(rhs),rhsMax =  -7.09659144423711E+01  1.74279288150599E+00
(PID.TID 0000.0001)  ploadbar=  1.00995412554656E+05
 cg2d: Sum(rhs),rhsMax =  -7.02160698300977E+01  1.76069703415172E+00
(PID.TID 0000.0001)  ploadbar=  1.00995176021064E+05
 cg2d: Sum(rhs),rhsMax =  -7.07982105848084E+01  1.74554443165759E+00
(PID.TID 0000.0001)  ploadbar=  1.00994939487472E+05
 cg2d: Sum(rhs),rhsMax =  -7.11944092259595E+01  1.73518287613065E+00
(PID.TID 0000.0001)  ploadbar=  1.00994702953881E+05
 cg2d: Sum(rhs),rhsMax =  -7.15214616383741E+01  1.72662311076082E+00
(PID.TID 0000.0001)  ploadbar=  1.00994466420289E+05
 cg2d: Sum(rhs),rhsMax =  -7.18437311462657E+01  1.71826855311207E+00
(PID.TID 0000.0001)  ploadbar=  1.00994229886697E+05
 cg2d: Sum(rhs),rhsMax =  -7.21596667095537E+01  1.71013986753441E+00
(PID.TID 0000.0001)  ploadbar=  1.00993993353105E+05
 cg2d: Sum(rhs),rhsMax =  -7.24578874067193E+01  1.70249869629625E+00
(PID.TID 0000.0001)  ploadbar=  1.00993566290419E+05
 cg2d: Sum(rhs),rhsMax =  -7.27481692037251E+01  1.69510187033078E+00
(PID.TID 0000.0001)  ploadbar=  1.00993139227732E+05
 cg2d: Sum(rhs),rhsMax =  -7.30270523479015E+01  1.68801949698572E+00
(PID.TID 0000.0001)  ploadbar=  1.00992712165046E+05
 cg2d: Sum(rhs),rhsMax =  -7.30127934549321E+01  1.68772955789805E+00
(PID.TID 0000.0001)  ploadbar=  1.00992285102359E+05
 cg2d: Sum(rhs),rhsMax =  -7.28796964359699E+01  1.69017994146169E+00
(PID.TID 0000.0001)  ploadbar=  1.00991858039673E+05
 cg2d: Sum(rhs),rhsMax =  -7.27890457109224E+01  1.69164105969006E+00
(PID.TID 0000.0001)  ploadbar=  1.00991430976987E+05
 cg2d: Sum(rhs),rhsMax =  -7.27449122640919E+01  1.69205121334952E+00
(PID.TID 0000.0001)  ploadbar=  1.00991302255754E+05
 cg2d: Sum(rhs),rhsMax =  -7.27584939976633E+01  1.69112574419182E+00
(PID.TID 0000.0001)  ploadbar=  1.00991173534520E+05
 cg2d: Sum(rhs),rhsMax =  -7.28318980773243E+01  1.68881085018272E+00
(PID.TID 0000.0001)  ploadbar=  1.00991044813287E+05
 cg2d: Sum(rhs),rhsMax =  -7.29601732736928E+01  1.68522712638957E+00
(PID.TID 0000.0001)  ploadbar=  1.00990916092054E+05
 cg2d: Sum(rhs),rhsMax =  -7.31347974836077E+01  1.68058420942024E+00
(PID.TID 0000.0001)  ploadbar=  1.00990787370821E+05
 cg2d: Sum(rhs),rhsMax =  -7.34105138434008E+01  1.67364715153167E+00
(PID.TID 0000.0001)  ploadbar=  1.00990658649588E+05
 cg2d: Sum(rhs),rhsMax =  -7.35867427734473E+01  1.66898774869331E+00
(PID.TID 0000.0001)  ploadbar=  1.00991150435881E+05
 cg2d: Sum(rhs),rhsMax =  -7.34091443553748E+01  1.67234000476097E+00
(PID.TID 0000.0001)  ploadbar=  1.00991642222175E+05
 cg2d: Sum(rhs),rhsMax =  -7.32362411867964E+01  1.67556217221526E+00
(PID.TID 0000.0001)  ploadbar=  1.00992134008468E+05
 cg2d: Sum(rhs),rhsMax =  -7.30921721251085E+01  1.67809326869154E+00
(PID.TID 0000.0001)  ploadbar=  1.00992625794762E+05
 cg2d: Sum(rhs),rhsMax =  -7.29508946448307E+01  1.68052163192073E+00
(PID.TID 0000.0001)  ploadbar=  1.00993117581055E+05
 cg2d: Sum(rhs),rhsMax =  -7.28111185336306E+01  1.68287234896894E+00
(PID.TID 0000.0001)  ploadbar=  1.00993609367348E+05
 cg2d: Sum(rhs),rhsMax =  -7.26728294977500E+01  1.68524788849569E+00
(PID.TID 0000.0001)  ploadbar=  1.00994272671245E+05
 cg2d: Sum(rhs),rhsMax =  -7.25042050130693E+01  1.68838180527694E+00
(PID.TID 0000.0001)  ploadbar=  1.00994935975142E+05
 cg2d: Sum(rhs),rhsMax =  -7.23114229122772E+01  1.69213933071241E+00
(PID.TID 0000.0001)  ploadbar=  1.00995599279039E+05
 cg2d: Sum(rhs),rhsMax =  -7.21362656980502E+01  1.69554419626179E+00
(PID.TID 0000.0001)  ploadbar=  1.00996262582935E+05
 cg2d: Sum(rhs),rhsMax =  -7.20248115447484E+01  1.69749413343906E+00
(PID.TID 0000.0001)  ploadbar=  1.00996925886832E+05
 cg2d: Sum(rhs),rhsMax =  -7.19987700997732E+01  1.69745571167762E+00
(PID.TID 0000.0001)  ploadbar=  1.00997589190729E+05
 cg2d: Sum(rhs),rhsMax =  -7.19680037935042E+01  1.69752290886232E+00
(PID.TID 0000.0001)  ploadbar=  1.00999434833049E+05
 cg2d: Sum(rhs),rhsMax =  -7.19597497943894E+01  1.69704791378242E+00
(PID.TID 0000.0001)  ploadbar=  1.01001280475370E+05
 cg2d: Sum(rhs),rhsMax =  -7.19779927873802E+01  1.69592985707603E+00
(PID.TID 0000.0001)  ploadbar=  1.01003126117691E+05
 cg2d: Sum(rhs),rhsMax =  -7.20198329240076E+01  1.69423524661388E+00
(PID.TID 0000.0001)  ploadbar=  1.01004971760011E+05
 cg2d: Sum(rhs),rhsMax =  -7.20875657405417E+01  1.69191238003277E+00
(PID.TID 0000.0001)  ploadbar=  1.01006817402332E+05
 cg2d: Sum(rhs),rhsMax =  -7.21828334583001E+01  1.68892947300328E+00
(PID.TID 0000.0001)  ploadbar=  1.01008663044653E+05
 cg2d: Sum(rhs),rhsMax =  -7.23154905581231E+01  1.68514126942275E+00
(PID.TID 0000.0001)  ploadbar=  1.01009516014276E+05
 cg2d: Sum(rhs),rhsMax =  -7.24548404137305E+01  1.68125274865883E+00
(PID.TID 0000.0001)  ploadbar=  1.01010368983900E+05
 cg2d: Sum(rhs),rhsMax =  -7.25904608192575E+01  1.67750395182939E+00
(PID.TID 0000.0001)  ploadbar=  1.01011221953524E+05
 cg2d: Sum(rhs),rhsMax =  -7.27157235788246E+01  1.67404444276253E+00
(PID.TID 0000.0001)  ploadbar=  1.01012074923148E+05
 cg2d: Sum(rhs),rhsMax =  -7.28600090288979E+01  1.67019791324661E+00
(PID.TID 0000.0001)  ploadbar=  1.01012927892771E+05
 cg2d: Sum(rhs),rhsMax =  -7.30276299332351E+01  1.66586527155305E+00
(PID.TID 0000.0001)  ploadbar=  1.01013780862395E+05
 cg2d: Sum(rhs),rhsMax =  -7.31547733823524E+01  1.66244188535195E+00
(PID.TID 0000.0001)  ploadbar=  1.01012978704038E+05
 cg2d: Sum(rhs),rhsMax =  -7.32640735240072E+01  1.65940229915141E+00
(PID.TID 0000.0001)  ploadbar=  1.01012176545682E+05
 cg2d: Sum(rhs),rhsMax =  -7.33637747322446E+01  1.65655270641950E+00
(PID.TID 0000.0001)  ploadbar=  1.01011374387326E+05
 cg2d: Sum(rhs),rhsMax =  -7.34720284565396E+01  1.65347913473939E+00
(PID.TID 0000.0001)  ploadbar=  1.01010572228969E+05
 cg2d: Sum(rhs),rhsMax =  -7.36016463370019E+01  1.64989216446658E+00
(PID.TID 0000.0001)  ploadbar=  1.01009770070613E+05
 cg2d: Sum(rhs),rhsMax =  -7.37558922480895E+01  1.64572086791592E+00
(PID.TID 0000.0001)  ploadbar=  1.01008967912257E+05
 cg2d: Sum(rhs),rhsMax =  -7.38910722948657E+01  1.64202904456137E+00
(PID.TID 0000.0001)  ploadbar=  1.01007902221550E+05
 cg2d: Sum(rhs),rhsMax =  -7.39831322450061E+01  1.63934051480108E+00
(PID.TID 0000.0001)  ploadbar=  1.01006836530843E+05
 cg2d: Sum(rhs),rhsMax =  -7.40163305431313E+01  1.63798966916069E+00
(PID.TID 0000.0001)  ploadbar=  1.01005770840136E+05
 cg2d: Sum(rhs),rhsMax =  -7.40248067239724E+01  1.63721187995635E+00
(PID.TID 0000.0001)  ploadbar=  1.01004705149429E+05
 cg2d: Sum(rhs),rhsMax =  -7.40132188665642E+01  1.63689838662678E+00
(PID.TID 0000.0001)  ploadbar=  1.01003639458722E+05
 cg2d: Sum(rhs),rhsMax =  -7.39992172192353E+01  1.63665571574717E+00
(PID.TID 0000.0001)  ploadbar=  1.01002573768016E+05
 cg2d: Sum(rhs),rhsMax =  -7.39601145943465E+01  1.63695402640011E+00
(PID.TID 0000.0001)  ploadbar=  1.01001160029187E+05
 cg2d: Sum(rhs),rhsMax =  -7.38919009795408E+01  1.63787646421060E+00
(PID.TID 0000.0001)  ploadbar=  1.00999746290359E+05
 cg2d: Sum(rhs),rhsMax =  -7.37947911327246E+01  1.63941687995277E+00
(PID.TID 0000.0001)  ploadbar=  1.00998332551530E+05
 cg2d: Sum(rhs),rhsMax =  -7.36737894615026E+01  1.64146434473266E+00
(PID.TID 0000.0001)  ploadbar=  1.00996918812701E+05
 cg2d: Sum(rhs),rhsMax =  -7.35350737740879E+01  1.64388516209624E+00
(PID.TID 0000.0001)  ploadbar=  1.00995505073873E+05
 cg2d: Sum(rhs),rhsMax =  -7.33969797360178E+01  1.64627707011086E+00
(PID.TID 0000.0001)  ploadbar=  1.00994091335044E+05
 cg2d: Sum(rhs),rhsMax =  -7.32701175007093E+01  1.64848263591697E+00
(PID.TID 0000.0001)  ploadbar=  1.00993687957754E+05
 cg2d: Sum(rhs),rhsMax =  -7.31487880591640E+01  1.65061756774564E+00
(PID.TID 0000.0001)  ploadbar=  1.00993284580463E+05
 cg2d: Sum(rhs),rhsMax =  -7.30386151839374E+01  1.65255008853771E+00
(PID.TID 0000.0001)  ploadbar=  1.00992881203173E+05
 cg2d: Sum(rhs),rhsMax =  -7.29383599082033E+01  1.65430421063216E+00
(PID.TID 0000.0001)  ploadbar=  1.00992477825883E+05
 cg2d: Sum(rhs),rhsMax =  -7.28868892859454E+01  1.65499192126028E+00
(PID.TID 0000.0001)  ploadbar=  1.00992074448592E+05
 cg2d: Sum(rhs),rhsMax =  -7.28954888685565E+01  1.65434982462194E+00
(PID.TID 0000.0001)  ploadbar=  1.00991671071302E+05
 cg2d: Sum(rhs),rhsMax =  -7.28696418194015E+01  1.65446993355576E+00
(PID.TID 0000.0001)  ploadbar=  1.00992372901243E+05
 cg2d: Sum(rhs),rhsMax =  -7.28100185540832E+01  1.65533259302557E+00
(PID.TID 0000.0001)  ploadbar=  1.00993074731184E+05
 cg2d: Sum(rhs),rhsMax =  -7.26479538706738E+01  1.65850121457089E+00
(PID.TID 0000.0001)  ploadbar=  1.00993776561126E+05
 cg2d: Sum(rhs),rhsMax =  -7.24366904425445E+01  1.66277822880890E+00
(PID.TID 0000.0001)  ploadbar=  1.00994478391067E+05
 cg2d: Sum(rhs),rhsMax =  -7.22244919830648E+01  1.66706187643472E+00
(PID.TID 0000.0001)  ploadbar=  1.00995180221008E+05
 cg2d: Sum(rhs),rhsMax =  -7.20428387806057E+01  1.67061708025517E+00
(PID.TID 0000.0001)  ploadbar=  1.00995882050949E+05
 cg2d: Sum(rhs),rhsMax =  -7.19282776110313E+01  1.67264753695641E+00
(PID.TID 0000.0001)  ploadbar=  1.00995987467059E+05
 cg2d: Sum(rhs),rhsMax =  -7.20748820272870E+01  1.66863165930586E+00
(PID.TID 0000.0001)  ploadbar=  1.00996092883169E+05
 cg2d: Sum(rhs),rhsMax =  -7.22277474993329E+01  1.66449789435489E+00
(PID.TID 0000.0001)  ploadbar=  1.00996198299279E+05
 cg2d: Sum(rhs),rhsMax =  -7.23850207421960E+01  1.66028288890668E+00
(PID.TID 0000.0001)  ploadbar=  1.00996303715389E+05
 cg2d: Sum(rhs),rhsMax =  -7.25870051788448E+01  1.65505958124389E+00
(PID.TID 0000.0001)  ploadbar=  1.00996409131499E+05
 cg2d: Sum(rhs),rhsMax =  -7.28168401412246E+01  1.64922091134132E+00
(PID.TID 0000.0001)  ploadbar=  1.00996514547609E+05
 cg2d: Sum(rhs),rhsMax =  -7.30298968531663E+01  1.64379405361692E+00
(PID.TID 0000.0001)  ploadbar=  1.00997443992891E+05
 cg2d: Sum(rhs),rhsMax =  -7.32305923307264E+01  1.63866806460606E+00
(PID.TID 0000.0001)  ploadbar=  1.00998373438173E+05
 cg2d: Sum(rhs),rhsMax =  -7.34199350009141E+01  1.63381290469974E+00
(PID.TID 0000.0001)  ploadbar=  1.00999302883455E+05
 cg2d: Sum(rhs),rhsMax =  -7.35996092349637E+01  1.62918168870207E+00
(PID.TID 0000.0001)  ploadbar=  1.01000232328737E+05
 cg2d: Sum(rhs),rhsMax =  -7.37722590773013E+01  1.62471046196771E+00
(PID.TID 0000.0001)  ploadbar=  1.01001161774019E+05
 cg2d: Sum(rhs),rhsMax =  -7.39391164162200E+01  1.62037089486134E+00
(PID.TID 0000.0001)  ploadbar=  1.01002091219301E+05
 cg2d: Sum(rhs),rhsMax =  -7.40908715980025E+01  1.61641475394737E+00
(PID.TID 0000.0001)  ploadbar=  1.01005213665892E+05
 cg2d: Sum(rhs),rhsMax =  -7.42335772737888E+01  1.61269474336229E+00
(PID.TID 0000.0001)  ploadbar=  1.01008336112482E+05
 cg2d: Sum(rhs),rhsMax =  -7.43720369694035E+01  1.60910368767227E+00
(PID.TID 0000.0001)  ploadbar=  1.01011458559073E+05
 cg2d: Sum(rhs),rhsMax =  -7.45038125373481E+01  1.60568914748064E+00
(PID.TID 0000.0001)  ploadbar=  1.01014581005664E+05
 cg2d: Sum(rhs),rhsMax =  -7.45884864271644E+01  1.60331643321807E+00
(PID.TID 0000.0001)  ploadbar=  1.01017703452255E+05
 cg2d: Sum(rhs),rhsMax =  -7.47046402107449E+01  1.60028816169406E+00
(PID.TID 0000.0001)  ploadbar=  1.01020825898845E+05
 cg2d: Sum(rhs),rhsMax =  -7.48062504901803E+01  1.59755416127101E+00
(PID.TID 0000.0001)  ploadbar=  1.01022076509501E+05
 cg2d: Sum(rhs),rhsMax =  -7.49009908360050E+01  1.59494056987998E+00
(PID.TID 0000.0001)  ploadbar=  1.01023327120156E+05
 cg2d: Sum(rhs),rhsMax =  -7.50018119214799E+01  1.59216681827977E+00
(PID.TID 0000.0001)  ploadbar=  1.01024577730811E+05
 cg2d: Sum(rhs),rhsMax =  -7.50775749058750E+01  1.58988817333780E+00
(PID.TID 0000.0001)  ploadbar=  1.01025828341467E+05
 cg2d: Sum(rhs),rhsMax =  -7.48275458981016E+01  1.59448152695758E+00
(PID.TID 0000.0001)  ploadbar=  1.01027078952122E+05
 cg2d: Sum(rhs),rhsMax =  -7.46023516295408E+01  1.59852709013717E+00
(PID.TID 0000.0001)  ploadbar=  1.01028329562777E+05
 cg2d: Sum(rhs),rhsMax =  -7.43063916102848E+01  1.60415612265592E+00
(PID.TID 0000.0001)  ploadbar=  1.01030123630907E+05
 cg2d: Sum(rhs),rhsMax =  -7.40516069415722E+01  1.60896356902985E+00
(PID.TID 0000.0001)  ploadbar=  1.01031917699036E+05
 cg2d: Sum(rhs),rhsMax =  -7.38348242000508E+01  1.61299761264727E+00
(PID.TID 0000.0001)  ploadbar=  1.01033711767166E+05
 cg2d: Sum(rhs),rhsMax =  -7.36567124838214E+01  1.61622454887880E+00
(PID.TID 0000.0001)  ploadbar=  1.01035505835295E+05
 cg2d: Sum(rhs),rhsMax =  -7.35456564376715E+01  1.61800225806389E+00
(PID.TID 0000.0001)  ploadbar=  1.01037299903424E+05
 cg2d: Sum(rhs),rhsMax =  -7.34795973437173E+01  1.61880405175629E+00
(PID.TID 0000.0001)  ploadbar=  1.01039093971553E+05
 cg2d: Sum(rhs),rhsMax =  -7.34159767147151E+01  1.61957236467131E+00
(PID.TID 0000.0001)  ploadbar=  1.01039805291666E+05
 cg2d: Sum(rhs),rhsMax =  -7.33369559216264E+01  1.62069346974586E+00
(PID.TID 0000.0001)  ploadbar=  1.01040516611778E+05
 cg2d: Sum(rhs),rhsMax =  -7.32402631797297E+01  1.62222183712027E+00
(PID.TID 0000.0001)  ploadbar=  1.01041227931890E+05
 cg2d: Sum(rhs),rhsMax =  -7.31268029836427E+01  1.62414354502637E+00
(PID.TID 0000.0001)  ploadbar=  1.01041939252002E+05
 cg2d: Sum(rhs),rhsMax =  -7.29986694101693E+01  1.62640649720703E+00
(PID.TID 0000.0001)  ploadbar=  1.01042650572114E+05
 cg2d: Sum(rhs),rhsMax =  -7.28625869328868E+01  1.62885641112639E+00
(PID.TID 0000.0001)  ploadbar=  1.01043361892226E+05
 cg2d: Sum(rhs),rhsMax =  -7.27293798040425E+01  1.63128106780438E+00
(PID.TID 0000.0001)  ploadbar=  1.01043076522375E+05
 cg2d: Sum(rhs),rhsMax =  -7.27941631320683E+01  1.62929860976561E+00
(PID.TID 0000.0001)  ploadbar=  1.01042791152524E+05
 cg2d: Sum(rhs),rhsMax =  -7.30861499731602E+01  1.62228418685484E+00
(PID.TID 0000.0001)  ploadbar=  1.01042505782673E+05
 cg2d: Sum(rhs),rhsMax =  -7.33709129023476E+01  1.61550528274302E+00
(PID.TID 0000.0001)  ploadbar=  1.01042220412822E+05
 cg2d: Sum(rhs),rhsMax =  -7.36662725524975E+01  1.60856365203108E+00
(PID.TID 0000.0001)  ploadbar=  1.01041935042971E+05
 cg2d: Sum(rhs),rhsMax =  -7.39374264096702E+01  1.60221262937998E+00
(PID.TID 0000.0001)  ploadbar=  1.01041649673120E+05
 cg2d: Sum(rhs),rhsMax =  -7.42021672941866E+01  1.59603389766637E+00
(PID.TID 0000.0001)  ploadbar=  1.01041555708217E+05
 cg2d: Sum(rhs),rhsMax =  -7.44651605000467E+01  1.58992133896097E+00
(PID.TID 0000.0001)  ploadbar=  1.01041461743314E+05
 cg2d: Sum(rhs),rhsMax =  -7.47134912960897E+01  1.58414845141099E+00
(PID.TID 0000.0001)  ploadbar=  1.01041367778411E+05
 cg2d: Sum(rhs),rhsMax =  -7.49306457885189E+01  1.57905387577205E+00
(PID.TID 0000.0001)  ploadbar=  1.01041273813508E+05
 cg2d: Sum(rhs),rhsMax =  -7.51048605004103E+01  1.57486972676733E+00
(PID.TID 0000.0001)  ploadbar=  1.01041179848605E+05
 cg2d: Sum(rhs),rhsMax =  -7.52250941452618E+01  1.57180755960933E+00
(PID.TID 0000.0001)  ploadbar=  1.01041085883702E+05
 cg2d: Sum(rhs),rhsMax =  -7.53537737376793E+01  1.56858882343743E+00
(PID.TID 0000.0001)  ploadbar=  1.01041933638959E+05
 cg2d: Sum(rhs),rhsMax =  -7.55847600038266E+01  1.56327355782732E+00
(PID.TID 0000.0001)  ploadbar=  1.01042781394216E+05
 cg2d: Sum(rhs),rhsMax =  -7.58795678230061E+01  1.55668915695461E+00
(PID.TID 0000.0001)  ploadbar=  1.01043629149473E+05
 cg2d: Sum(rhs),rhsMax =  -7.62489116006318E+01  1.54864794015511E+00
(PID.TID 0000.0001)  ploadbar=  1.01044476904730E+05
 cg2d: Sum(rhs),rhsMax =  -7.67163128345039E+01  1.53872028331095E+00
(PID.TID 0000.0001)  ploadbar=  1.01045324659988E+05
 cg2d: Sum(rhs),rhsMax =  -7.73034958642379E+01  1.52654108573981E+00
(PID.TID 0000.0001)  ploadbar=  1.01046172415245E+05
 cg2d: Sum(rhs),rhsMax =  -7.79648610062915E+01  1.51308622983526E+00
(PID.TID 0000.0001)  ploadbar=  1.01047186479165E+05
 cg2d: Sum(rhs),rhsMax =  -7.86661174728302E+01  1.49907658377817E+00
(PID.TID 0000.0001)  ploadbar=  1.01048200543086E+05
 cg2d: Sum(rhs),rhsMax =  -7.93647883389678E+01  1.48533887384347E+00
(PID.TID 0000.0001)  ploadbar=  1.01049214607006E+05
 cg2d: Sum(rhs),rhsMax =  -8.00134629139300E+01  1.47273378236112E+00
(PID.TID 0000.0001)  ploadbar=  1.01050228670927E+05
 cg2d: Sum(rhs),rhsMax =  -8.05734058800197E+01  1.46191160468783E+00
(PID.TID 0000.0001)  ploadbar=  1.01051242734848E+05
 cg2d: Sum(rhs),rhsMax =  -8.10214359571564E+01  1.45321235238266E+00
(PID.TID 0000.0001)  ploadbar=  1.01052256798768E+05
 cg2d: Sum(rhs),rhsMax =  -8.11323146317001E+01  1.45063657153781E+00
(PID.TID 0000.0001)  ploadbar=  1.01053097242186E+05
 cg2d: Sum(rhs),rhsMax =  -8.05860886151626E+01  1.45989494306651E+00
(PID.TID 0000.0001)  ploadbar=  1.01053937685603E+05
 cg2d: Sum(rhs),rhsMax =  -8.00408989739920E+01  1.46927347804828E+00
(PID.TID 0000.0001)  ploadbar=  1.01054778129020E+05
 cg2d: Sum(rhs),rhsMax =  -7.94601375309811E+01  1.47945126687366E+00
(PID.TID 0000.0001)  ploadbar=  1.01055618572438E+05
 cg2d: Sum(rhs),rhsMax =  -7.88213068054133E+01  1.49087705196561E+00
(PID.TID 0000.0001)  ploadbar=  1.01056459015855E+05
 cg2d: Sum(rhs),rhsMax =  -7.82543345506757E+01  1.50110417219158E+00
(PID.TID 0000.0001)  ploadbar=  1.01057299459273E+05
 cg2d: Sum(rhs),rhsMax =  -7.76962949710034E+01  1.51127274025404E+00
(PID.TID 0000.0001)  ploadbar=  1.01058293878541E+05
 cg2d: Sum(rhs),rhsMax =  -7.71896438792538E+01  1.52053713278985E+00
(PID.TID 0000.0001)  ploadbar=  1.01059288297810E+05
 cg2d: Sum(rhs),rhsMax =  -7.67291974108529E+01  1.52895920803308E+00
(PID.TID 0000.0001)  ploadbar=  1.01060282717079E+05
 cg2d: Sum(rhs),rhsMax =  -7.63174491830140E+01  1.53645577030332E+00
(PID.TID 0000.0001)  ploadbar=  1.01061277136347E+05
 cg2d: Sum(rhs),rhsMax =  -7.59518724163220E+01  1.54304500372174E+00
(PID.TID 0000.0001)  ploadbar=  1.01062271555616E+05
 cg2d: Sum(rhs),rhsMax =  -7.56285415400859E+01  1.54877552982962E+00
(PID.TID 0000.0001)  ploadbar=  1.01063265974885E+05
 cg2d: Sum(rhs),rhsMax =  -7.53258853334201E+01  1.55418053701313E+00
(PID.TID 0000.0001)  ploadbar=  1.01063887630204E+05
 cg2d: Sum(rhs),rhsMax =  -7.50188385280714E+01  1.55976723003744E+00
(PID.TID 0000.0001)  ploadbar=  1.01064509285523E+05
 cg2d: Sum(rhs),rhsMax =  -7.47520849100903E+01  1.56459670460901E+00
(PID.TID 0000.0001)  ploadbar=  1.01065130940842E+05
 cg2d: Sum(rhs),rhsMax =  -7.45177729566038E+01  1.56881069653840E+00
(PID.TID 0000.0001)  ploadbar=  1.01065752596161E+05
 cg2d: Sum(rhs),rhsMax =  -7.43082479186034E+01  1.57255301836001E+00
(PID.TID 0000.0001)  ploadbar=  1.01066374251480E+05
 cg2d: Sum(rhs),rhsMax =  -7.41158815122115E+01  1.57597356147869E+00
(PID.TID 0000.0001)  ploadbar=  1.01066995906799E+05
 cg2d: Sum(rhs),rhsMax =  -7.38563115607451E+01  1.58083893344613E+00
(PID.TID 0000.0001)  ploadbar=  1.01068030985796E+05
 cg2d: Sum(rhs),rhsMax =  -7.44302244811280E+01  1.56797137723703E+00
(PID.TID 0000.0001)  ploadbar=  1.01069066064793E+05
 cg2d: Sum(rhs),rhsMax =  -7.54737022735541E+01  1.54561653571370E+00
(PID.TID 0000.0001)  ploadbar=  1.01070101143790E+05
 cg2d: Sum(rhs),rhsMax =  -7.66364256055043E+01  1.52148470889073E+00
(PID.TID 0000.0001)  ploadbar=  1.01071136222787E+05
 cg2d: Sum(rhs),rhsMax =  -7.78708395008504E+01  1.49667794338004E+00
(PID.TID 0000.0001)  ploadbar=  1.01072171301784E+05
 cg2d: Sum(rhs),rhsMax =  -7.91279668482772E+01  1.47220444707805E+00
(PID.TID 0000.0001)  ploadbar=  1.01073206380781E+05
 cg2d: Sum(rhs),rhsMax =  -8.03953132119578E+01  1.44836382298138E+00
(PID.TID 0000.0001)  ploadbar=  1.01074601373780E+05
 cg2d: Sum(rhs),rhsMax =  -8.15526512791576E+01  1.42723166993766E+00
(PID.TID 0000.0001)  ploadbar=  1.01075996366779E+05
 cg2d: Sum(rhs),rhsMax =  -8.25847364308210E+01  1.40886649672968E+00
(PID.TID 0000.0001)  ploadbar=  1.01077391359777E+05
 cg2d: Sum(rhs),rhsMax =  -8.34968694882999E+01  1.39299157236453E+00
(PID.TID 0000.0001)  ploadbar=  1.01078786352776E+05
 cg2d: Sum(rhs),rhsMax =  -8.29867746766997E+01  1.40110096547352E+00
(PID.TID 0000.0001)  ploadbar=  1.01080181345775E+05
 cg2d: Sum(rhs),rhsMax =  -8.21930396958686E+01  1.41420444887608E+00
(PID.TID 0000.0001)  ploadbar=  1.01081576338773E+05
 cg2d: Sum(rhs),rhsMax =  -8.14709322798315E+01  1.42628089445060E+00
(PID.TID 0000.0001)  ploadbar=  1.01082180847726E+05
 cg2d: Sum(rhs),rhsMax =  -8.08072661267448E+01  1.43750127172962E+00
(PID.TID 0000.0001)  ploadbar=  1.01082785356679E+05
 cg2d: Sum(rhs),rhsMax =  -8.01876698139145E+01  1.44807505896244E+00
(PID.TID 0000.0001)  ploadbar=  1.01083389865632E+05
 cg2d: Sum(rhs),rhsMax =  -7.96072673692482E+01  1.45805192514662E+00
(PID.TID 0000.0001)  ploadbar=  1.01083994374585E+05
 cg2d: Sum(rhs),rhsMax =  -7.90610506740548E+01  1.46749422999785E+00
(PID.TID 0000.0001)  ploadbar=  1.01084598883538E+05
 cg2d: Sum(rhs),rhsMax =  -7.85462482573123E+01  1.47642919828827E+00
(PID.TID 0000.0001)  ploadbar=  1.01085203392491E+05
 cg2d: Sum(rhs),rhsMax =  -7.79798703582371E+01  1.48649358924071E+00
(PID.TID 0000.0001)  ploadbar=  1.01085876466224E+05
 cg2d: Sum(rhs),rhsMax =  -7.73905689298742E+01  1.49717061525133E+00
(PID.TID 0000.0001)  ploadbar=  1.01086549539957E+05
 cg2d: Sum(rhs),rhsMax =  -7.68302618898666E+01  1.50745907900316E+00
(PID.TID 0000.0001)  ploadbar=  1.01087222613690E+05
 cg2d: Sum(rhs),rhsMax =  -7.62980076135092E+01  1.51735508583892E+00
(PID.TID 0000.0001)  ploadbar=  1.01087895687423E+05
 cg2d: Sum(rhs),rhsMax =  -7.57921554799123E+01  1.52686679760733E+00
(PID.TID 0000.0001)  ploadbar=  1.01088568761156E+05
 cg2d: Sum(rhs),rhsMax =  -7.53092697378349E+01  1.53604234587385E+00
(PID.TID 0000.0001)  ploadbar=  1.01089241834889E+05
 cg2d: Sum(rhs),rhsMax =  -7.48254974838086E+01  1.54535575790564E+00
(PID.TID 0000.0001)  ploadbar=  1.01088694311032E+05
 cg2d: Sum(rhs),rhsMax =  -7.43277443300157E+01  1.55508366306062E+00
(PID.TID 0000.0001)  ploadbar=  1.01088146787176E+05
 cg2d: Sum(rhs),rhsMax =  -7.38078728387236E+01  1.56541032476007E+00
(PID.TID 0000.0001)  ploadbar=  1.01087599263319E+05
 cg2d: Sum(rhs),rhsMax =  -7.32683338951883E+01  1.57630362036856E+00
(PID.TID 0000.0001)  ploadbar=  1.01087051739463E+05
 cg2d: Sum(rhs),rhsMax =  -7.27251803525072E+01  1.58743455668663E+00
(PID.TID 0000.0001)  ploadbar=  1.01086504215607E+05
 cg2d: Sum(rhs),rhsMax =  -7.23795919779150E+01  1.59436797959314E+00
(PID.TID 0000.0001)  ploadbar=  1.01085956691750E+05
 cg2d: Sum(rhs),rhsMax =  -7.25321323057402E+01  1.59041411759280E+00
(PID.TID 0000.0001)  ploadbar=  1.01085289453686E+05
 cg2d: Sum(rhs),rhsMax =  -7.25762654925069E+01  1.58887984766393E+00
(PID.TID 0000.0001)  ploadbar=  1.01084622215621E+05
 cg2d: Sum(rhs),rhsMax =  -7.25667381460029E+01  1.58854830255563E+00
(PID.TID 0000.0001)  ploadbar=  1.01083954977556E+05
 cg2d: Sum(rhs),rhsMax =  -7.25641408961321E+01  1.58808570602497E+00
(PID.TID 0000.0001)  ploadbar=  1.01083287739491E+05
 cg2d: Sum(rhs),rhsMax =  -7.25926264687512E+01  1.58695730834297E+00
(PID.TID 0000.0001)  ploadbar=  1.01082620501426E+05
 cg2d: Sum(rhs),rhsMax =  -7.27119553214740E+01  1.58385630716875E+00
(PID.TID 0000.0001)  ploadbar=  1.01081953263362E+05
 cg2d: Sum(rhs),rhsMax =  -7.29384525097622E+01  1.57840478543797E+00
(PID.TID 0000.0001)  ploadbar=  1.01081310934051E+05
 cg2d: Sum(rhs),rhsMax =  -7.33551031699871E+01  1.56886796517799E+00
(PID.TID 0000.0001)  ploadbar=  1.01080668604740E+05
 cg2d: Sum(rhs),rhsMax =  -7.39351531458365E+01  1.55594907364403E+00
(PID.TID 0000.0001)  ploadbar=  1.01080026275429E+05
 cg2d: Sum(rhs),rhsMax =  -7.46082737731449E+01  1.54125921127946E+00
(PID.TID 0000.0001)  ploadbar=  1.01079383946119E+05
 cg2d: Sum(rhs),rhsMax =  -7.53306976876405E+01  1.52578026894181E+00
(PID.TID 0000.0001)  ploadbar=  1.01078741616808E+05
 cg2d: Sum(rhs),rhsMax =  -7.60704015573975E+01  1.51019622259979E+00
(PID.TID 0000.0001)  ploadbar=  1.01078099287497E+05
 cg2d: Sum(rhs),rhsMax =  -7.56011103766909E+01  1.51883436786275E+00
(PID.TID 0000.0001)  ploadbar=  1.01077135315459E+05
 cg2d: Sum(rhs),rhsMax =  -7.48845287396571E+01  1.53263791890618E+00
(PID.TID 0000.0001)  ploadbar=  1.01076171343420E+05
 cg2d: Sum(rhs),rhsMax =  -7.42230667455615E+01  1.54556968910412E+00
(PID.TID 0000.0001)  ploadbar=  1.01075207371382E+05
 cg2d: Sum(rhs),rhsMax =  -7.36013202891923E+01  1.55789885027366E+00
(PID.TID 0000.0001)  ploadbar=  1.01074243399343E+05
 cg2d: Sum(rhs),rhsMax =  -7.29966436174522E+01  1.57007135980417E+00
(PID.TID 0000.0001)  ploadbar=  1.01073279427305E+05
 cg2d: Sum(rhs),rhsMax =  -7.23800523122844E+01  1.58270225775575E+00
(PID.TID 0000.0001)  ploadbar=  1.01072315455266E+05
 cg2d: Sum(rhs),rhsMax =  -7.17550141490674E+01  1.59573878349184E+00
(PID.TID 0000.0001)  ploadbar=  1.01071801707993E+05
 cg2d: Sum(rhs),rhsMax =  -7.11342750630343E+01  1.60890660283425E+00
(PID.TID 0000.0001)  ploadbar=  1.01071287960721E+05
 cg2d: Sum(rhs),rhsMax =  -7.21107126540630E+01  1.58637315600618E+00
(PID.TID 0000.0001)  ploadbar=  1.01070774213448E+05
 cg2d: Sum(rhs),rhsMax =  -7.31199991563937E+01  1.56373359423420E+00
(PID.TID 0000.0001)  ploadbar=  1.01070260466175E+05
 cg2d: Sum(rhs),rhsMax =  -7.41407441128489E+01  1.54146232592391E+00
(PID.TID 0000.0001)  ploadbar=  1.01069746718902E+05
 cg2d: Sum(rhs),rhsMax =  -7.51559879956502E+01  1.51989526611276E+00
(PID.TID 0000.0001)  ploadbar=  1.01069232971630E+05
 cg2d: Sum(rhs),rhsMax =  -7.60691097101769E+01  1.50094260120031E+00
(PID.TID 0000.0001)  ploadbar=  1.01070592397653E+05
 cg2d: Sum(rhs),rhsMax =  -7.68601325987252E+01  1.48481616615961E+00
(PID.TID 0000.0001)  ploadbar=  1.01071951823676E+05
 cg2d: Sum(rhs),rhsMax =  -7.75265943641116E+01  1.47139553496553E+00
(PID.TID 0000.0001)  ploadbar=  1.01073311249699E+05
 cg2d: Sum(rhs),rhsMax =  -7.80780094195196E+01  1.46036470854874E+00
(PID.TID 0000.0001)  ploadbar=  1.01074670675722E+05
 cg2d: Sum(rhs),rhsMax =  -7.84940845123461E+01  1.45199531495930E+00
(PID.TID 0000.0001)  ploadbar=  1.01076030101745E+05
 cg2d: Sum(rhs),rhsMax =  -7.88819343874909E+01  1.44423250581636E+00
(PID.TID 0000.0001)  ploadbar=  1.01077389527768E+05
 cg2d: Sum(rhs),rhsMax =  -7.86481232994211E+01  1.44790811249342E+00
(PID.TID 0000.0001)  ploadbar=  1.01078453210284E+05
 cg2d: Sum(rhs),rhsMax =  -7.81708790641548E+01  1.45612924319536E+00
(PID.TID 0000.0001)  ploadbar=  1.01079516892800E+05
 cg2d: Sum(rhs),rhsMax =  -7.76978815308100E+01  1.46437137891418E+00
(PID.TID 0000.0001)  ploadbar=  1.01080580575317E+05
 cg2d: Sum(rhs),rhsMax =  -7.72139737741106E+01  1.47292003980845E+00
(PID.TID 0000.0001)  ploadbar=  1.01081644257833E+05
 cg2d: Sum(rhs),rhsMax =  -7.75027879612497E+01  1.46679651130854E+00
(PID.TID 0000.0001)  ploadbar=  1.01082707940349E+05
 cg2d: Sum(rhs),rhsMax =  -7.79559054875769E+01  1.45762705080431E+00
(PID.TID 0000.0001)  ploadbar=  1.01083771622865E+05
 cg2d: Sum(rhs),rhsMax =  -7.84439758470863E+01  1.44796857840285E+00
(PID.TID 0000.0001)  ploadbar=  1.01084557799130E+05
 cg2d: Sum(rhs),rhsMax =  -7.88744610065581E+01  1.43952510451195E+00
(PID.TID 0000.0001)  ploadbar=  1.01085343975394E+05
 cg2d: Sum(rhs),rhsMax =  -7.81728320776265E+01  1.45194159503193E+00
(PID.TID 0000.0001)  ploadbar=  1.01086130151659E+05
 cg2d: Sum(rhs),rhsMax =  -7.75353985616677E+01  1.46340791199404E+00
(PID.TID 0000.0001)  ploadbar=  1.01086916327923E+05
 cg2d: Sum(rhs),rhsMax =  -7.69532098071107E+01  1.47403831706648E+00
(PID.TID 0000.0001)  ploadbar=  1.01087702504188E+05
 cg2d: Sum(rhs),rhsMax =  -7.64131456385818E+01  1.48403748937142E+00
(PID.TID 0000.0001)  ploadbar=  1.01088488680452E+05
 cg2d: Sum(rhs),rhsMax =  -7.58838704807177E+01  1.49397219948139E+00
(PID.TID 0000.0001)  ploadbar=  1.01088141120850E+05
 cg2d: Sum(rhs),rhsMax =  -7.53658587835283E+01  1.50382517785745E+00
(PID.TID 0000.0001)  ploadbar=  1.01087793561248E+05
 cg2d: Sum(rhs),rhsMax =  -7.48557603595776E+01  1.51365890818107E+00
(PID.TID 0000.0001)  ploadbar=  1.01087446001646E+05
 cg2d: Sum(rhs),rhsMax =  -7.43562183980699E+01  1.52341663673881E+00
(PID.TID 0000.0001)  ploadbar=  1.01087098442044E+05
 cg2d: Sum(rhs),rhsMax =  -7.38735203305008E+01  1.53296223176897E+00
(PID.TID 0000.0001)  ploadbar=  1.01086750882442E+05
 cg2d: Sum(rhs),rhsMax =  -7.34174420653021E+01  1.54208188079027E+00
(PID.TID 0000.0001)  ploadbar=  1.01086403322840E+05
 cg2d: Sum(rhs),rhsMax =  -7.29917458452457E+01  1.55071907104898E+00
(PID.TID 0000.0001)  ploadbar=  1.01084754634727E+05
 cg2d: Sum(rhs),rhsMax =  -7.26172304302322E+01  1.55840072807507E+00
(PID.TID 0000.0001)  ploadbar=  1.01083105946614E+05
 cg2d: Sum(rhs),rhsMax =  -7.23038987421536E+01  1.56487432773990E+00
(PID.TID 0000.0001)  ploadbar=  1.01081457258501E+05
 cg2d: Sum(rhs),rhsMax =  -7.20561749478947E+01  1.57000803450916E+00
(PID.TID 0000.0001)  ploadbar=  1.01079808570388E+05
 cg2d: Sum(rhs),rhsMax =  -7.19324457746501E+01  1.57249230386642E+00
(PID.TID 0000.0001)  ploadbar=  1.01078159882275E+05
 cg2d: Sum(rhs),rhsMax =  -7.24576306509446E+01  1.56090504706130E+00
(PID.TID 0000.0001)  ploadbar=  1.01076511194162E+05
 cg2d: Sum(rhs),rhsMax =  -7.27828423050007E+01  1.55370423224276E+00
(PID.TID 0000.0001)  ploadbar=  1.01074940063146E+05
 cg2d: Sum(rhs),rhsMax =  -7.31130440265652E+01  1.54642262218232E+00
(PID.TID 0000.0001)  ploadbar=  1.01073368932129E+05
 cg2d: Sum(rhs),rhsMax =  -7.34436752970081E+01  1.53915760236637E+00
(PID.TID 0000.0001)  ploadbar=  1.01071797801113E+05
 cg2d: Sum(rhs),rhsMax =  -7.37622146733986E+01  1.53216343554548E+00
(PID.TID 0000.0001)  ploadbar=  1.01070226670097E+05
 cg2d: Sum(rhs),rhsMax =  -7.40526451445796E+01  1.52576113832596E+00
(PID.TID 0000.0001)  ploadbar=  1.01068655539081E+05
 cg2d: Sum(rhs),rhsMax =  -7.43062948994365E+01  1.52011081157851E+00
(PID.TID 0000.0001)  ploadbar=  1.01067084408065E+05
 cg2d: Sum(rhs),rhsMax =  -7.43805860097310E+01  1.51818636566803E+00
(PID.TID 0000.0001)  ploadbar=  1.01065520475315E+05
 cg2d: Sum(rhs),rhsMax =  -7.46170329902188E+01  1.51300204281449E+00
(PID.TID 0000.0001)  ploadbar=  1.01063956542565E+05
 cg2d: Sum(rhs),rhsMax =  -7.49131920379118E+01  1.50667624418559E+00
(PID.TID 0000.0001)  ploadbar=  1.01062392609815E+05
 cg2d: Sum(rhs),rhsMax =  -7.52644876909761E+01  1.49932541670409E+00
(PID.TID 0000.0001)  ploadbar=  1.01060828677064E+05
 cg2d: Sum(rhs),rhsMax =  -7.55869970903239E+01  1.49263059215452E+00
(PID.TID 0000.0001)  ploadbar=  1.01059264744314E+05
 cg2d: Sum(rhs),rhsMax =  -7.58965572280820E+01  1.48625857661445E+00
(PID.TID 0000.0001)  ploadbar=  1.01057700811564E+05
 cg2d: Sum(rhs),rhsMax =  -7.61705561879372E+01  1.48061119600143E+00
(PID.TID 0000.0001)  ploadbar=  1.01058365519147E+05
 cg2d: Sum(rhs),rhsMax =  -7.58228780080518E+01  1.48707653938087E+00
(PID.TID 0000.0001)  ploadbar=  1.01059030226730E+05
 cg2d: Sum(rhs),rhsMax =  -7.52544790970372E+01  1.49795946883158E+00
(PID.TID 0000.0001)  ploadbar=  1.01059694934313E+05
 cg2d: Sum(rhs),rhsMax =  -7.46209324768090E+01  1.51029987863523E+00
(PID.TID 0000.0001)  ploadbar=  1.01060359641897E+05
 cg2d: Sum(rhs),rhsMax =  -7.40265996612601E+01  1.52201618352510E+00
(PID.TID 0000.0001)  ploadbar=  1.01061024349480E+05
 cg2d: Sum(rhs),rhsMax =  -7.34979242830091E+01  1.53252466795143E+00
(PID.TID 0000.0001)  ploadbar=  1.01061689057063E+05
 cg2d: Sum(rhs),rhsMax =  -7.30927578827725E+01  1.54061714371283E+00
(PID.TID 0000.0001)  ploadbar=  1.01063808913747E+05
 cg2d: Sum(rhs),rhsMax =  -7.28247064495485E+01  1.54591466829795E+00
(PID.TID 0000.0001)  ploadbar=  1.01065928770431E+05
 cg2d: Sum(rhs),rhsMax =  -7.26902779292395E+01  1.54842337430197E+00
(PID.TID 0000.0001)  ploadbar=  1.01068048627114E+05
 cg2d: Sum(rhs),rhsMax =  -7.27666207646464E+01  1.54646736609548E+00
(PID.TID 0000.0001)  ploadbar=  1.01070168483798E+05
 cg2d: Sum(rhs),rhsMax =  -7.29672673805803E+01  1.54189847303415E+00
(PID.TID 0000.0001)  ploadbar=  1.01072288340482E+05
 cg2d: Sum(rhs),rhsMax =  -7.32961673919075E+01  1.53467236417930E+00
(PID.TID 0000.0001)  ploadbar=  1.01074408197165E+05
 cg2d: Sum(rhs),rhsMax =  -7.36412834782595E+01  1.52714649146304E+00
(PID.TID 0000.0001)  ploadbar=  1.01075107250117E+05
 cg2d: Sum(rhs),rhsMax =  -7.39678987308014E+01  1.52004056327654E+00
(PID.TID 0000.0001)  ploadbar=  1.01075806303068E+05
 cg2d: Sum(rhs),rhsMax =  -7.42547123470547E+01  1.51377673564126E+00
(PID.TID 0000.0001)  ploadbar=  1.01076505356020E+05
 cg2d: Sum(rhs),rhsMax =  -7.44936232108726E+01  1.50849399752784E+00
(PID.TID 0000.0001)  ploadbar=  1.01077204408971E+05
 cg2d: Sum(rhs),rhsMax =  -7.46908559343760E+01  1.50404426146296E+00
(PID.TID 0000.0001)  ploadbar=  1.01077903461923E+05
 cg2d: Sum(rhs),rhsMax =  -7.48634852375138E+01  1.50006592149925E+00
(PID.TID 0000.0001)  ploadbar=  1.01078602514874E+05
 cg2d: Sum(rhs),rhsMax =  -7.49586924325936E+01  1.49769923143160E+00
(PID.TID 0000.0001)  ploadbar=  1.01079164083469E+05
 cg2d: Sum(rhs),rhsMax =  -7.50168040175823E+01  1.49612258592643E+00
(PID.TID 0000.0001)  ploadbar=  1.01079725652063E+05
 cg2d: Sum(rhs),rhsMax =  -7.51283560177861E+01  1.49352486832862E+00
(PID.TID 0000.0001)  ploadbar=  1.01080287220658E+05
 cg2d: Sum(rhs),rhsMax =  -7.53215511052555E+01  1.48935207725235E+00
(PID.TID 0000.0001)  ploadbar=  1.01080848789253E+05
 cg2d: Sum(rhs),rhsMax =  -7.55905219913532E+01  1.48373908035590E+00
(PID.TID 0000.0001)  ploadbar=  1.01081410357848E+05
 cg2d: Sum(rhs),rhsMax =  -7.59212800286037E+01  1.47698632999523E+00
(PID.TID 0000.0001)  ploadbar=  1.01081971926443E+05
 cg2d: Sum(rhs),rhsMax =  -7.62786013116630E+01  1.46976766377244E+00
(PID.TID 0000.0001)  ploadbar=  1.01082644169216E+05
 cg2d: Sum(rhs),rhsMax =  -7.66112348642687E+01  1.46307086065000E+00
(PID.TID 0000.0001)  ploadbar=  1.01083316411990E+05
 cg2d: Sum(rhs),rhsMax =  -7.68879261772485E+01  1.45747208003429E+00
(PID.TID 0000.0001)  ploadbar=  1.01083988654763E+05
 cg2d: Sum(rhs),rhsMax =  -7.70860388493501E+01  1.45337252884081E+00
(PID.TID 0000.0001)  ploadbar=  1.01084660897537E+05
 cg2d: Sum(rhs),rhsMax =  -7.71979811510486E+01  1.45088639391377E+00
(PID.TID 0000.0001)  ploadbar=  1.01085333140311E+05
 cg2d: Sum(rhs),rhsMax =  -7.72353077604439E+01  1.44977858119186E+00
(PID.TID 0000.0001)  ploadbar=  1.01086005383084E+05
 cg2d: Sum(rhs),rhsMax =  -7.72352977958931E+01  1.44939783856718E+00
(PID.TID 0000.0001)  ploadbar=  1.01085508674435E+05
 cg2d: Sum(rhs),rhsMax =  -7.72427928697629E+01  1.44889494108852E+00
(PID.TID 0000.0001)  ploadbar=  1.01085011965787E+05
 cg2d: Sum(rhs),rhsMax =  -7.72966561693734E+01  1.44753707308772E+00
(PID.TID 0000.0001)  ploadbar=  1.01084515257138E+05
 cg2d: Sum(rhs),rhsMax =  -7.74091971314571E+01  1.44509469120605E+00
(PID.TID 0000.0001)  ploadbar=  1.01084018548489E+05
 cg2d: Sum(rhs),rhsMax =  -7.76296073672796E+01  1.44065989444320E+00
(PID.TID 0000.0001)  ploadbar=  1.01083521839840E+05
 cg2d: Sum(rhs),rhsMax =  -7.80317042648402E+01  1.43290502744156E+00
(PID.TID 0000.0001)  ploadbar=  1.01083025131191E+05
 cg2d: Sum(rhs),rhsMax =  -7.85100425379005E+01  1.42379777694523E+00
(PID.TID 0000.0001)  ploadbar=  1.01083241680365E+05
 cg2d: Sum(rhs),rhsMax =  -7.90151867758349E+01  1.41427115974806E+00
(PID.TID 0000.0001)  ploadbar=  1.01083458229539E+05
 cg2d: Sum(rhs),rhsMax =  -7.95077848416697E+01  1.40503693039239E+00
(PID.TID 0000.0001)  ploadbar=  1.01083674778713E+05
 cg2d: Sum(rhs),rhsMax =  -7.96449575076098E+01  1.40209557740190E+00
(PID.TID 0000.0001)  ploadbar=  1.01083891327887E+05
 cg2d: Sum(rhs),rhsMax =  -7.94729975894833E+01  1.40455263075635E+00
(PID.TID 0000.0001)  ploadbar=  1.01084107877061E+05
 cg2d: Sum(rhs),rhsMax =  -7.94085161419864E+01  1.40505667139553E+00
(PID.TID 0000.0001)  ploadbar=  1.01084324426235E+05
 cg2d: Sum(rhs),rhsMax =  -7.94578797556348E+01  1.40357309939708E+00
(PID.TID 0000.0001)  ploadbar=  1.01084214018831E+05
 cg2d: Sum(rhs),rhsMax =  -7.95376950157467E+01  1.40157626389014E+00
(PID.TID 0000.0001)  ploadbar=  1.01084103611428E+05
 cg2d: Sum(rhs),rhsMax =  -7.94713029463551E+01  1.40217481747728E+00
(PID.TID 0000.0001)  ploadbar=  1.01083993204025E+05
 cg2d: Sum(rhs),rhsMax =  -7.93761004798832E+01  1.40329298755649E+00
(PID.TID 0000.0001)  ploadbar=  1.01083882796622E+05
 cg2d: Sum(rhs),rhsMax =  -7.92537502716252E+01  1.40490057256358E+00
(PID.TID 0000.0001)  ploadbar=  1.01083772389218E+05
 cg2d: Sum(rhs),rhsMax =  -7.91358265049991E+01  1.40643764871936E+00
(PID.TID 0000.0001)  ploadbar=  1.01083661981815E+05
 cg2d: Sum(rhs),rhsMax =  -7.90324060014519E+01  1.40773195333974E+00
(PID.TID 0000.0001)  ploadbar=  1.01083797359954E+05
 cg2d: Sum(rhs),rhsMax =  -7.89359428024376E+01  1.40891204571283E+00
(PID.TID 0000.0001)  ploadbar=  1.01083932738092E+05
 cg2d: Sum(rhs),rhsMax =  -7.88494402991419E+01  1.40992072952675E+00
(PID.TID 0000.0001)  ploadbar=  1.01084068116230E+05
 cg2d: Sum(rhs),rhsMax =  -7.87726666203652E+01  1.41075990887275E+00
(PID.TID 0000.0001)  ploadbar=  1.01084203494369E+05
 cg2d: Sum(rhs),rhsMax =  -7.87037945892079E+01  1.41145715710888E+00
(PID.TID 0000.0001)  ploadbar=  1.01084338872507E+05
 cg2d: Sum(rhs),rhsMax =  -7.86393857918983E+01  1.41207038548660E+00
(PID.TID 0000.0001)  ploadbar=  1.01084474250646E+05
 cg2d: Sum(rhs),rhsMax =  -7.85812599844374E+01  1.41260008937614E+00
(PID.TID 0000.0001)  ploadbar=  1.01083923930261E+05
 cg2d: Sum(rhs),rhsMax =  -7.85273711264218E+01  1.41307984779065E+00
(PID.TID 0000.0001)  ploadbar=  1.01083373609875E+05
 cg2d: Sum(rhs),rhsMax =  -7.84638842275829E+01  1.41375569096336E+00
(PID.TID 0000.0001)  ploadbar=  1.01082823289490E+05
 cg2d: Sum(rhs),rhsMax =  -7.83942311442738E+01  1.41456058371387E+00
(PID.TID 0000.0001)  ploadbar=  1.01082272969105E+05
 cg2d: Sum(rhs),rhsMax =  -7.83109126582830E+01  1.41562509644380E+00
(PID.TID 0000.0001)  ploadbar=  1.01081722648720E+05
 cg2d: Sum(rhs),rhsMax =  -7.83725907562006E+01  1.41407834994908E+00
(PID.TID 0000.0001)  ploadbar=  1.01081172328334E+05
 cg2d: Sum(rhs),rhsMax =  -7.85028174791702E+01  1.41128539693076E+00
(PID.TID 0000.0001)  ploadbar=  1.01080458736695E+05
 cg2d: Sum(rhs),rhsMax =  -7.86816478231201E+01  1.40761368086863E+00
(PID.TID 0000.0001)  ploadbar=  1.01079745145055E+05
 cg2d: Sum(rhs),rhsMax =  -7.88918157028575E+01  1.40338176528856E+00
(PID.TID 0000.0001)  ploadbar=  1.01079031553415E+05
 cg2d: Sum(rhs),rhsMax =  -7.91134480191345E+01  1.39894884915308E+00
(PID.TID 0000.0001)  ploadbar=  1.01078317961775E+05
 cg2d: Sum(rhs),rhsMax =  -7.93280476356013E+01  1.39464047334866E+00
(PID.TID 0000.0001)  ploadbar=  1.01077604370135E+05
 cg2d: Sum(rhs),rhsMax =  -7.95241977882572E+01  1.39064786780207E+00
(PID.TID 0000.0001)  ploadbar=  1.01076890778496E+05
 cg2d: Sum(rhs),rhsMax =  -7.95552184246134E+01  1.38958018443837E+00
(PID.TID 0000.0001)  ploadbar=  1.01075661769660E+05
 cg2d: Sum(rhs),rhsMax =  -7.94880374684168E+01  1.39024937186839E+00
(PID.TID 0000.0001)  ploadbar=  1.01074432760825E+05
 cg2d: Sum(rhs),rhsMax =  -7.94057106521464E+01  1.39120190200290E+00
(PID.TID 0000.0001)  ploadbar=  1.01073203751990E+05
 cg2d: Sum(rhs),rhsMax =  -7.93238076815383E+01  1.39216077915440E+00
(PID.TID 0000.0001)  ploadbar=  1.01071974743155E+05
 cg2d: Sum(rhs),rhsMax =  -7.92532214898394E+01  1.39293034680202E+00
(PID.TID 0000.0001)  ploadbar=  1.01070745734320E+05
 cg2d: Sum(rhs),rhsMax =  -7.92031058594484E+01  1.39334517090024E+00
(PID.TID 0000.0001)  ploadbar=  1.01069516725484E+05
 cg2d: Sum(rhs),rhsMax =  -7.91489285086967E+01  1.39383464599418E+00
(PID.TID 0000.0001)  ploadbar=  1.01068671553139E+05
 cg2d: Sum(rhs),rhsMax =  -7.90936358754158E+01  1.39434317280789E+00
(PID.TID 0000.0001)  ploadbar=  1.01067826380793E+05
 cg2d: Sum(rhs),rhsMax =  -7.90245287326240E+01  1.39509048821464E+00
(PID.TID 0000.0001)  ploadbar=  1.01066981208447E+05
 cg2d: Sum(rhs),rhsMax =  -7.89263062629020E+01  1.39634430306209E+00
(PID.TID 0000.0001)  ploadbar=  1.01066136036101E+05
 cg2d: Sum(rhs),rhsMax =  -7.87803037921049E+01  1.39843663631275E+00
(PID.TID 0000.0001)  ploadbar=  1.01065290863755E+05
 cg2d: Sum(rhs),rhsMax =  -7.85675363401496E+01  1.40171349201865E+00
(PID.TID 0000.0001)  ploadbar=  1.01064445691409E+05
 cg2d: Sum(rhs),rhsMax =  -7.83136030906186E+01  1.40577422099257E+00
(PID.TID 0000.0001)  ploadbar=  1.01063985439184E+05
 cg2d: Sum(rhs),rhsMax =  -7.79822188460037E+01  1.41128606807682E+00
(PID.TID 0000.0001)  ploadbar=  1.01063525186959E+05
 cg2d: Sum(rhs),rhsMax =  -7.75640357258448E+01  1.41845181384119E+00
(PID.TID 0000.0001)  ploadbar=  1.01063064934733E+05
 cg2d: Sum(rhs),rhsMax =  -7.71573814231231E+01  1.42549969285788E+00
(PID.TID 0000.0001)  ploadbar=  1.01062604682508E+05
 cg2d: Sum(rhs),rhsMax =  -7.69400154325354E+01  1.42911159635417E+00
(PID.TID 0000.0001)  ploadbar=  1.01062144430282E+05
 cg2d: Sum(rhs),rhsMax =  -7.68784675736534E+01  1.42984773267591E+00
(PID.TID 0000.0001)  ploadbar=  1.01061684178057E+05
 cg2d: Sum(rhs),rhsMax =  -7.68882688438549E+01  1.42923278834005E+00
(PID.TID 0000.0001)  ploadbar=  1.01061323178530E+05
 cg2d: Sum(rhs),rhsMax =  -7.69013223517741E+01  1.42853011735908E+00
(PID.TID 0000.0001)  ploadbar=  1.01060962179003E+05
 cg2d: Sum(rhs),rhsMax =  -7.69188852974256E+01  1.42771413481447E+00
(PID.TID 0000.0001)  ploadbar=  1.01060601179476E+05
 cg2d: Sum(rhs),rhsMax =  -7.69430383765118E+01  1.42674404177359E+00
(PID.TID 0000.0001)  ploadbar=  1.01060240179949E+05
 cg2d: Sum(rhs),rhsMax =  -7.69726556820930E+01  1.42563693408081E+00
(PID.TID 0000.0001)  ploadbar=  1.01059879180422E+05
 cg2d: Sum(rhs),rhsMax =  -7.69985990008057E+01  1.42455898583258E+00
(PID.TID 0000.0001)  ploadbar=  1.01059518180895E+05
 cg2d: Sum(rhs),rhsMax =  -7.68891302877273E+01  1.42600501993462E+00
(PID.TID 0000.0001)  ploadbar=  1.01059196101286E+05
 cg2d: Sum(rhs),rhsMax =  -7.66671733359173E+01  1.42956033146465E+00
(PID.TID 0000.0001)  ploadbar=  1.01058874021676E+05
 cg2d: Sum(rhs),rhsMax =  -7.63843555781174E+01  1.43428538674420E+00
(PID.TID 0000.0001)  ploadbar=  1.01058551942067E+05
 cg2d: Sum(rhs),rhsMax =  -7.60424395436715E+01  1.44016637225740E+00
(PID.TID 0000.0001)  ploadbar=  1.01058229862457E+05
 cg2d: Sum(rhs),rhsMax =  -7.59485195470767E+01  1.44137719583252E+00
(PID.TID 0000.0001)  ploadbar=  1.01057907782848E+05
 cg2d: Sum(rhs),rhsMax =  -7.59965762700340E+01  1.43989365252705E+00
(PID.TID 0000.0001)  ploadbar=  1.01057585703238E+05
 cg2d: Sum(rhs),rhsMax =  -7.60331520898703E+01  1.43862492330664E+00
(PID.TID 0000.0001)  ploadbar=  1.01057533362643E+05
 cg2d: Sum(rhs),rhsMax =  -7.60587559211288E+01  1.43755659852783E+00
(PID.TID 0000.0001)  ploadbar=  1.01057481022049E+05
 cg2d: Sum(rhs),rhsMax =  -7.60861120476574E+01  1.43644236463342E+00
(PID.TID 0000.0001)  ploadbar=  1.01057428681454E+05
 cg2d: Sum(rhs),rhsMax =  -7.61318165054070E+01  1.43496594936286E+00
(PID.TID 0000.0001)  ploadbar=  1.01057376340859E+05
 cg2d: Sum(rhs),rhsMax =  -7.62029697841588E+01  1.43299313277916E+00
(PID.TID 0000.0001)  ploadbar=  1.01057324000264E+05
 cg2d: Sum(rhs),rhsMax =  -7.63073409060746E+01  1.43038045284688E+00
(PID.TID 0000.0001)  ploadbar=  1.01057271659669E+05
 cg2d: Sum(rhs),rhsMax =  -7.63783633467718E+01  1.42841049132562E+00
(PID.TID 0000.0001)  ploadbar=  1.01057496868366E+05
 cg2d: Sum(rhs),rhsMax =  -7.60813539184283E+01  1.43335340646610E+00
(PID.TID 0000.0001)  ploadbar=  1.01057722077062E+05
 cg2d: Sum(rhs),rhsMax =  -7.58698329295666E+01  1.43672063059042E+00
(PID.TID 0000.0001)  ploadbar=  1.01057947285758E+05
 cg2d: Sum(rhs),rhsMax =  -7.58396115689215E+01  1.43666554536309E+00
(PID.TID 0000.0001)  ploadbar=  1.01058172494454E+05
 cg2d: Sum(rhs),rhsMax =  -7.57740460557843E+01  1.43727591781035E+00
(PID.TID 0000.0001)  ploadbar=  1.01058397703150E+05
 cg2d: Sum(rhs),rhsMax =  -7.58966271555210E+01  1.43431253825222E+00
(PID.TID 0000.0001)  ploadbar=  1.01058622911846E+05
 cg2d: Sum(rhs),rhsMax =  -7.60347321014863E+01  1.43103159547059E+00
(PID.TID 0000.0001)  ploadbar=  1.01058934046051E+05
 cg2d: Sum(rhs),rhsMax =  -7.61192142775234E+01  1.42873109995979E+00
(PID.TID 0000.0001)  ploadbar=  1.01059245180256E+05
 cg2d: Sum(rhs),rhsMax =  -7.61885366135440E+01  1.42667975188557E+00
(PID.TID 0000.0001)  ploadbar=  1.01059556314461E+05
 cg2d: Sum(rhs),rhsMax =  -7.62428038775737E+01  1.42486811630860E+00
(PID.TID 0000.0001)  ploadbar=  1.01059867448665E+05
 cg2d: Sum(rhs),rhsMax =  -7.61555514838782E+01  1.42565036921229E+00
(PID.TID 0000.0001)  ploadbar=  1.01060178582870E+05
 cg2d: Sum(rhs),rhsMax =  -7.61750196640613E+01  1.42437754259091E+00
(PID.TID 0000.0001)  ploadbar=  1.01060489717075E+05
 cg2d: Sum(rhs),rhsMax =  -7.59037094001523E+01  1.42857373495129E+00
(PID.TID 0000.0001)  ploadbar=  1.01061365889884E+05
 cg2d: Sum(rhs),rhsMax =  -7.58092159524648E+01  1.42947009634685E+00
(PID.TID 0000.0001)  ploadbar=  1.01062242062693E+05
 cg2d: Sum(rhs),rhsMax =  -7.61171127223367E+01  1.42281601323938E+00
(PID.TID 0000.0001)  ploadbar=  1.01063118235502E+05
 cg2d: Sum(rhs),rhsMax =  -7.64196734795944E+01  1.41631907994898E+00
(PID.TID 0000.0001)  ploadbar=  1.01063994408311E+05
 cg2d: Sum(rhs),rhsMax =  -7.67195955244354E+01  1.40992288537962E+00
(PID.TID 0000.0001)  ploadbar=  1.01064870581120E+05
 cg2d: Sum(rhs),rhsMax =  -7.70266498943577E+01  1.40344500645601E+00
(PID.TID 0000.0001)  ploadbar=  1.01065746753929E+05
 cg2d: Sum(rhs),rhsMax =  -7.74129798306263E+01  1.39560044553932E+00
(PID.TID 0000.0001)  ploadbar=  1.01066322470980E+05
 cg2d: Sum(rhs),rhsMax =  -7.78155456863089E+01  1.38755314218877E+00
(PID.TID 0000.0001)  ploadbar=  1.01066898188031E+05
 cg2d: Sum(rhs),rhsMax =  -7.82328037450183E+01  1.37933648553793E+00
(PID.TID 0000.0001)  ploadbar=  1.01067473905082E+05
 cg2d: Sum(rhs),rhsMax =  -7.86652731680301E+01  1.37094792575277E+00
(PID.TID 0000.0001)  ploadbar=  1.01068049622134E+05
 cg2d: Sum(rhs),rhsMax =  -7.89835543134690E+01  1.36462714286156E+00
(PID.TID 0000.0001)  ploadbar=  1.01068625339185E+05
 cg2d: Sum(rhs),rhsMax =  -7.92360160434745E+01  1.35949045105133E+00
(PID.TID 0000.0001)  ploadbar=  1.01069201056236E+05
 cg2d: Sum(rhs),rhsMax =  -7.94484406993029E+01  1.35512660776764E+00
(PID.TID 0000.0001)  ploadbar=  1.01068503020724E+05
 cg2d: Sum(rhs),rhsMax =  -7.96254590826723E+01  1.35144082378564E+00
(PID.TID 0000.0001)  ploadbar=  1.01067804985212E+05
 cg2d: Sum(rhs),rhsMax =  -7.97857030822131E+01  1.34810354212490E+00
(PID.TID 0000.0001)  ploadbar=  1.01067106949701E+05
 cg2d: Sum(rhs),rhsMax =  -7.99414522840029E+01  1.34489928041946E+00
(PID.TID 0000.0001)  ploadbar=  1.01066408914189E+05
 cg2d: Sum(rhs),rhsMax =  -8.00892957616082E+01  1.34187885567250E+00
(PID.TID 0000.0001)  ploadbar=  1.01065710878677E+05
 cg2d: Sum(rhs),rhsMax =  -8.02793419478973E+01  1.33820086648760E+00
(PID.TID 0000.0001)  ploadbar=  1.01065012843166E+05
 cg2d: Sum(rhs),rhsMax =  -8.03962888947412E+01  1.33571257181029E+00
(PID.TID 0000.0001)  ploadbar=  1.01065579141623E+05
 cg2d: Sum(rhs),rhsMax =  -8.05317840539590E+01  1.33288120120855E+00
(PID.TID 0000.0001)  ploadbar=  1.01066145440080E+05
 cg2d: Sum(rhs),rhsMax =  -8.06851292007722E+01  1.32971714514855E+00
(PID.TID 0000.0001)  ploadbar=  1.01066711738537E+05
 cg2d: Sum(rhs),rhsMax =  -8.08533653760899E+01  1.32626609747870E+00
(PID.TID 0000.0001)  ploadbar=  1.01067278036994E+05
 cg2d: Sum(rhs),rhsMax =  -8.10316569816334E+01  1.32260313983258E+00
(PID.TID 0000.0001)  ploadbar=  1.01067844335451E+05
 cg2d: Sum(rhs),rhsMax =  -8.12131260888664E+01  1.31883685962336E+00
(PID.TID 0000.0001)  ploadbar=  1.01068410633908E+05
 cg2d: Sum(rhs),rhsMax =  -8.13221420665172E+01  1.31631070756453E+00
(PID.TID 0000.0001)  ploadbar=  1.01069754451575E+05
 cg2d: Sum(rhs),rhsMax =  -8.15365199636411E+01  1.31214083964473E+00
(PID.TID 0000.0001)  ploadbar=  1.01071098269242E+05
 cg2d: Sum(rhs),rhsMax =  -8.17283184075795E+01  1.30839721423751E+00
(PID.TID 0000.0001)  ploadbar=  1.01072442086909E+05
 cg2d: Sum(rhs),rhsMax =  -8.18996731405564E+01  1.30503718095892E+00
(PID.TID 0000.0001)  ploadbar=  1.01073785904577E+05
 cg2d: Sum(rhs),rhsMax =  -8.20585885495471E+01  1.30192344991487E+00
(PID.TID 0000.0001)  ploadbar=  1.01075129722244E+05
 cg2d: Sum(rhs),rhsMax =  -8.22096934799010E+01  1.29897294682982E+00
(PID.TID 0000.0001)  ploadbar=  1.01076473539911E+05
 cg2d: Sum(rhs),rhsMax =  -8.23514906069709E+01  1.29621523799875E+00
(PID.TID 0000.0001)  ploadbar=  1.01076271380659E+05
 cg2d: Sum(rhs),rhsMax =  -8.24827712167393E+01  1.29366528145045E+00
(PID.TID 0000.0001)  ploadbar=  1.01076069221407E+05
 cg2d: Sum(rhs),rhsMax =  -8.26038980398430E+01  1.29131409377856E+00
(PID.TID 0000.0001)  ploadbar=  1.01075867062156E+05
 cg2d: Sum(rhs),rhsMax =  -8.27118794986523E+01  1.28920425382343E+00
(PID.TID 0000.0001)  ploadbar=  1.01075664902904E+05
 cg2d: Sum(rhs),rhsMax =  -8.28029037813700E+01  1.28739028978587E+00
(PID.TID 0000.0001)  ploadbar=  1.01075462743652E+05
 cg2d: Sum(rhs),rhsMax =  -8.28726575407553E+01  1.28593588332009E+00
(PID.TID 0000.0001)  ploadbar=  1.01075260584401E+05
 cg2d: Sum(rhs),rhsMax =  -8.28960688250718E+01  1.28522901294391E+00
(PID.TID 0000.0001)  ploadbar=  1.01074254091532E+05
 cg2d: Sum(rhs),rhsMax =  -8.28927999014819E+01  1.28495986981950E+00
(PID.TID 0000.0001)  ploadbar=  1.01073247598663E+05
 cg2d: Sum(rhs),rhsMax =  -8.28674933683451E+01  1.28505405679873E+00
(PID.TID 0000.0001)  ploadbar=  1.01072241105795E+05
 cg2d: Sum(rhs),rhsMax =  -8.28195730708597E+01  1.28551816869196E+00
(PID.TID 0000.0001)  ploadbar=  1.01071234612926E+05
 cg2d: Sum(rhs),rhsMax =  -8.27492645625137E+01  1.28634477176137E+00
(PID.TID 0000.0001)  ploadbar=  1.01070228120057E+05
 cg2d: Sum(rhs),rhsMax =  -8.26378401461665E+01  1.28782485320293E+00
(PID.TID 0000.0001)  ploadbar=  1.01069221627189E+05
 cg2d: Sum(rhs),rhsMax =  -8.25270495799678E+01  1.28929434321682E+00
(PID.TID 0000.0001)  ploadbar=  1.01068798223003E+05
 cg2d: Sum(rhs),rhsMax =  -8.24224019374500E+01  1.29066572593158E+00
(PID.TID 0000.0001)  ploadbar=  1.01068374818817E+05
 cg2d: Sum(rhs),rhsMax =  -8.23016042974066E+01  1.29228599781143E+00
(PID.TID 0000.0001)  ploadbar=  1.01067951414631E+05
 cg2d: Sum(rhs),rhsMax =  -8.21632022669638E+01  1.29417515448507E+00
(PID.TID 0000.0001)  ploadbar=  1.01067528010444E+05
 cg2d: Sum(rhs),rhsMax =  -8.20013690643211E+01  1.29642133277918E+00
(PID.TID 0000.0001)  ploadbar=  1.01067104606258E+05
 cg2d: Sum(rhs),rhsMax =  -8.18083839172740E+01  1.29914614470175E+00
(PID.TID 0000.0001)  ploadbar=  1.01066681202072E+05
 cg2d: Sum(rhs),rhsMax =  -8.15824712252851E+01  1.30243434899290E+00
(PID.TID 0000.0001)  ploadbar=  1.01065163704410E+05
 cg2d: Sum(rhs),rhsMax =  -8.15122929674455E+01  1.30326500779515E+00
(PID.TID 0000.0001)  ploadbar=  1.01063646206747E+05
 cg2d: Sum(rhs),rhsMax =  -8.14135285071909E+01  1.30457208061125E+00
(PID.TID 0000.0001)  ploadbar=  1.01062128709085E+05
 cg2d: Sum(rhs),rhsMax =  -8.13055797799988E+01  1.30604351856277E+00
(PID.TID 0000.0001)  ploadbar=  1.01060611211423E+05
 cg2d: Sum(rhs),rhsMax =  -8.11945268165078E+01  1.30757833855408E+00
(PID.TID 0000.0001)  ploadbar=  1.01059093713760E+05
 cg2d: Sum(rhs),rhsMax =  -8.10855488993474E+01  1.30908857038333E+00
(PID.TID 0000.0001)  ploadbar=  1.01057576216098E+05
 cg2d: Sum(rhs),rhsMax =  -8.10014587212141E+01  1.31020084808260E+00
(PID.TID 0000.0001)  ploadbar=  1.01057825060987E+05
 cg2d: Sum(rhs),rhsMax =  -8.09364547658746E+01  1.31100197662507E+00
(PID.TID 0000.0001)  ploadbar=  1.01058073905877E+05
 cg2d: Sum(rhs),rhsMax =  -8.08853500527882E+01  1.31157215340715E+00
(PID.TID 0000.0001)  ploadbar=  1.01058322750767E+05
 cg2d: Sum(rhs),rhsMax =  -8.08407483200467E+01  1.31202778821035E+00
(PID.TID 0000.0001)  ploadbar=  1.01058571595657E+05
 cg2d: Sum(rhs),rhsMax =  -8.07941671871726E+01  1.31250336106287E+00
(PID.TID 0000.0001)  ploadbar=  1.01058820440546E+05
 cg2d: Sum(rhs),rhsMax =  -8.07368336270967E+01  1.31314264188459E+00
(PID.TID 0000.0001)  ploadbar=  1.01059069285436E+05
 cg2d: Sum(rhs),rhsMax =  -8.06671643797509E+01  1.31399360922749E+00
(PID.TID 0000.0001)  ploadbar=  1.01059468948495E+05
 cg2d: Sum(rhs),rhsMax =  -8.05987058349973E+01  1.31483352613754E+00
(PID.TID 0000.0001)  ploadbar=  1.01059868611554E+05
 cg2d: Sum(rhs),rhsMax =  -8.05409011338048E+01  1.31550458584336E+00
(PID.TID 0000.0001)  ploadbar=  1.01060268274613E+05
 cg2d: Sum(rhs),rhsMax =  -8.05123352127597E+01  1.31569843192642E+00
(PID.TID 0000.0001)  ploadbar=  1.01060667937673E+05
 cg2d: Sum(rhs),rhsMax =  -8.04838110797127E+01  1.31588483818159E+00
(PID.TID 0000.0001)  ploadbar=  1.01061067600732E+05
 cg2d: Sum(rhs),rhsMax =  -8.05253077042392E+01  1.31491503200630E+00
(PID.TID 0000.0001)  ploadbar=  1.01061467263791E+05
 cg2d: Sum(rhs),rhsMax =  -8.05558545725994E+01  1.31409606186269E+00
(PID.TID 0000.0001)  ploadbar=  1.01060064957541E+05
 cg2d: Sum(rhs),rhsMax =  -8.05847701765453E+01  1.31327236355720E+00
(PID.TID 0000.0001)  ploadbar=  1.01058662651292E+05
 cg2d: Sum(rhs),rhsMax =  -8.05981393040177E+01  1.31266841221980E+00
(PID.TID 0000.0001)  ploadbar=  1.01057260345042E+05
 cg2d: Sum(rhs),rhsMax =  -8.07172874772341E+01  1.31030475966627E+00
(PID.TID 0000.0001)  ploadbar=  1.01055858038793E+05
 cg2d: Sum(rhs),rhsMax =  -8.08149231509881E+01  1.30824685877450E+00
(PID.TID 0000.0001)  ploadbar=  1.01054455732543E+05
 cg2d: Sum(rhs),rhsMax =  -8.08420681063472E+01  1.30727922426305E+00
(PID.TID 0000.0001)  ploadbar=  1.01053053426293E+05
 cg2d: Sum(rhs),rhsMax =  -8.08281888751946E+01  1.30702332024147E+00
(PID.TID 0000.0001)  ploadbar=  1.01051635466751E+05
 cg2d: Sum(rhs),rhsMax =  -8.08028239658484E+01  1.30699660130745E+00
(PID.TID 0000.0001)  ploadbar=  1.01050217507208E+05
 cg2d: Sum(rhs),rhsMax =  -8.07651495025886E+01  1.30721081868663E+00
(PID.TID 0000.0001)  ploadbar=  1.01048799547666E+05
 cg2d: Sum(rhs),rhsMax =  -8.07205553348157E+01  1.30757674612400E+00
(PID.TID 0000.0001)  ploadbar=  1.01047381588123E+05
 cg2d: Sum(rhs),rhsMax =  -8.07529805420391E+01  1.30672902718538E+00
(PID.TID 0000.0001)  ploadbar=  1.01045963628580E+05
 cg2d: Sum(rhs),rhsMax =  -8.08304851223905E+01  1.30518635500314E+00
(PID.TID 0000.0001)  ploadbar=  1.01044545669038E+05
 cg2d: Sum(rhs),rhsMax =  -8.09003530710753E+01  1.30377902758775E+00
(PID.TID 0000.0001)  ploadbar=  1.01044066425975E+05
 cg2d: Sum(rhs),rhsMax =  -8.09144455700340E+01  1.30327727869824E+00
(PID.TID 0000.0001)  ploadbar=  1.01043587182913E+05
 cg2d: Sum(rhs),rhsMax =  -8.08281899974582E+01  1.30439471148973E+00
(PID.TID 0000.0001)  ploadbar=  1.01043107939850E+05
 cg2d: Sum(rhs),rhsMax =  -8.06708375120909E+01  1.30666323564097E+00
(PID.TID 0000.0001)  ploadbar=  1.01042628696788E+05
 cg2d: Sum(rhs),rhsMax =  -8.04828492350988E+01  1.30943603688668E+00
(PID.TID 0000.0001)  ploadbar=  1.01042149453725E+05
 cg2d: Sum(rhs),rhsMax =  -8.03937133181149E+01  1.31060113285679E+00
(PID.TID 0000.0001)  ploadbar=  1.01041670210662E+05
 cg2d: Sum(rhs),rhsMax =  -8.02627325891346E+01  1.31247797122894E+00
(PID.TID 0000.0001)  ploadbar=  1.01041686990095E+05
 cg2d: Sum(rhs),rhsMax =  -8.01004430711282E+01  1.31489642025109E+00
(PID.TID 0000.0001)  ploadbar=  1.01041703769527E+05
 cg2d: Sum(rhs),rhsMax =  -7.99632774502109E+01  1.31693059842734E+00
(PID.TID 0000.0001)  ploadbar=  1.01041720548960E+05
 cg2d: Sum(rhs),rhsMax =  -7.98809210033724E+01  1.31808079210427E+00
(PID.TID 0000.0001)  ploadbar=  1.01041737328392E+05
 cg2d: Sum(rhs),rhsMax =  -7.98745406536635E+01  1.31798529880232E+00
(PID.TID 0000.0001)  ploadbar=  1.01041754107825E+05
 cg2d: Sum(rhs),rhsMax =  -8.00237895601875E+01  1.31532558642230E+00
(PID.TID 0000.0001)  ploadbar=  1.01041770887257E+05
 cg2d: Sum(rhs),rhsMax =  -8.02702110598578E+01  1.31104899120992E+00
(PID.TID 0000.0001)  ploadbar=  1.01042964656445E+05
 cg2d: Sum(rhs),rhsMax =  -8.05497262433071E+01  1.30621958795458E+00
(PID.TID 0000.0001)  ploadbar=  1.01044158425632E+05
 cg2d: Sum(rhs),rhsMax =  -8.08549796381244E+01  1.30096324184568E+00
(PID.TID 0000.0001)  ploadbar=  1.01045352194819E+05
 cg2d: Sum(rhs),rhsMax =  -8.11785296296583E+01  1.29540503275915E+00
(PID.TID 0000.0001)  ploadbar=  1.01046545964007E+05
 cg2d: Sum(rhs),rhsMax =  -8.15268818251314E+01  1.28944476994014E+00
(PID.TID 0000.0001)  ploadbar=  1.01047739733194E+05
 cg2d: Sum(rhs),rhsMax =  -8.19039367849946E+01  1.28302751876563E+00
(PID.TID 0000.0001)  ploadbar=  1.01048933502381E+05
 cg2d: Sum(rhs),rhsMax =  -8.20478927895618E+01  1.28033545763431E+00
(PID.TID 0000.0001)  ploadbar=  1.01050796568339E+05
 cg2d: Sum(rhs),rhsMax =  -8.20972111692108E+01  1.27916261622736E+00
(PID.TID 0000.0001)  ploadbar=  1.01052659634297E+05
 cg2d: Sum(rhs),rhsMax =  -8.21307764433159E+01  1.27827055641097E+00
(PID.TID 0000.0001)  ploadbar=  1.01054522700256E+05
 cg2d: Sum(rhs),rhsMax =  -8.21630232978609E+01  1.27743074825048E+00
(PID.TID 0000.0001)  ploadbar=  1.01056385766214E+05
 cg2d: Sum(rhs),rhsMax =  -8.22066648459780E+01  1.27643913001257E+00
(PID.TID 0000.0001)  ploadbar=  1.01058248832172E+05
 cg2d: Sum(rhs),rhsMax =  -8.22712946886789E+01  1.27514166123465E+00
(PID.TID 0000.0001)  ploadbar=  1.01060111898130E+05
 cg2d: Sum(rhs),rhsMax =  -8.24251963463997E+01  1.27248413542955E+00
(PID.TID 0000.0001)  ploadbar=  1.01061742330815E+05
 cg2d: Sum(rhs),rhsMax =  -8.22352614232403E+01  1.27515827803089E+00
(PID.TID 0000.0001)  ploadbar=  1.01063372763500E+05
 cg2d: Sum(rhs),rhsMax =  -8.19360964577607E+01  1.27955794171916E+00
(PID.TID 0000.0001)  ploadbar=  1.01065003196185E+05
 cg2d: Sum(rhs),rhsMax =  -8.16654440201123E+01  1.28354741862615E+00
(PID.TID 0000.0001)  ploadbar=  1.01066633628870E+05
 cg2d: Sum(rhs),rhsMax =  -8.14185592999887E+01  1.28718898169275E+00
(PID.TID 0000.0001)  ploadbar=  1.01068264061555E+05
 cg2d: Sum(rhs),rhsMax =  -8.11934465164718E+01  1.29050465161487E+00
(PID.TID 0000.0001)  ploadbar=  1.01069894494240E+05
 cg2d: Sum(rhs),rhsMax =  -8.10153102028575E+01  1.29311165137687E+00
(PID.TID 0000.0001)  ploadbar=  1.01070321501862E+05
 cg2d: Sum(rhs),rhsMax =  -8.08559724014741E+01  1.29544768081077E+00
(PID.TID 0000.0001)  ploadbar=  1.01070748509484E+05
 cg2d: Sum(rhs),rhsMax =  -8.07076509376953E+01  1.29763179489703E+00
(PID.TID 0000.0001)  ploadbar=  1.01071175517106E+05
 cg2d: Sum(rhs),rhsMax =  -8.05548837376529E+01  1.29990340009296E+00
(PID.TID 0000.0001)  ploadbar=  1.01071602524728E+05
 cg2d: Sum(rhs),rhsMax =  -8.03852649175092E+01  1.30245597191413E+00
(PID.TID 0000.0001)  ploadbar=  1.01072029532350E+05
 cg2d: Sum(rhs),rhsMax =  -8.01929070256528E+01  1.30538591850971E+00
(PID.TID 0000.0001)  ploadbar=  1.01072456539972E+05
 cg2d: Sum(rhs),rhsMax =  -7.99149167537150E+01  1.30969866520323E+00
(PID.TID 0000.0001)  ploadbar=  1.01073729460970E+05
 cg2d: Sum(rhs),rhsMax =  -7.96176563808433E+01  1.31431982859764E+00
(PID.TID 0000.0001)  ploadbar=  1.01075002381969E+05
 cg2d: Sum(rhs),rhsMax =  -7.92865079285918E+01  1.31949539918231E+00
(PID.TID 0000.0001)  ploadbar=  1.01076275302967E+05
 cg2d: Sum(rhs),rhsMax =  -7.89146150464080E+01  1.32535245130342E+00
(PID.TID 0000.0001)  ploadbar=  1.01077548223966E+05
 cg2d: Sum(rhs),rhsMax =  -7.84980388869533E+01  1.33197067490195E+00
(PID.TID 0000.0001)  ploadbar=  1.01078821144964E+05
 cg2d: Sum(rhs),rhsMax =  -7.80319861868900E+01  1.33945094696512E+00
(PID.TID 0000.0001)  ploadbar=  1.01080094065963E+05
 cg2d: Sum(rhs),rhsMax =  -7.75697963774446E+01  1.34698413370753E+00
(PID.TID 0000.0001)  ploadbar=  1.01080066865373E+05
 cg2d: Sum(rhs),rhsMax =  -7.70727994635745E+01  1.35524844745650E+00
(PID.TID 0000.0001)  ploadbar=  1.01080039664782E+05
 cg2d: Sum(rhs),rhsMax =  -7.65362173011491E+01  1.36435109407619E+00
(PID.TID 0000.0001)  ploadbar=  1.01080012464192E+05
 cg2d: Sum(rhs),rhsMax =  -7.59696764949269E+01  1.37414423704804E+00
(PID.TID 0000.0001)  ploadbar=  1.01079985263602E+05
 cg2d: Sum(rhs),rhsMax =  -7.53817915685105E+01  1.38448872986174E+00
(PID.TID 0000.0001)  ploadbar=  1.01079958063012E+05
 cg2d: Sum(rhs),rhsMax =  -7.47793967344660E+01  1.39527331475728E+00
(PID.TID 0000.0001)  ploadbar=  1.01079930862422E+05
 cg2d: Sum(rhs),rhsMax =  -7.41657620566323E+01  1.40644490682967E+00
(PID.TID 0000.0001)  ploadbar=  1.01079400343692E+05
 cg2d: Sum(rhs),rhsMax =  -7.35357409691309E+01  1.41811198177918E+00
(PID.TID 0000.0001)  ploadbar=  1.01078869824963E+05
 cg2d: Sum(rhs),rhsMax =  -7.28866482208108E+01  1.43034223951226E+00
(PID.TID 0000.0001)  ploadbar=  1.01078339306233E+05
 cg2d: Sum(rhs),rhsMax =  -7.22193902814171E+01  1.44313944489741E+00
(PID.TID 0000.0001)  ploadbar=  1.01077808787504E+05
 cg2d: Sum(rhs),rhsMax =  -7.15338190777176E+01  1.45652802368003E+00
(PID.TID 0000.0001)  ploadbar=  1.01077278268774E+05
 cg2d: Sum(rhs),rhsMax =  -7.08293478420088E+01  1.47054434817563E+00
(PID.TID 0000.0001)  ploadbar=  1.01076747750045E+05
 cg2d: Sum(rhs),rhsMax =  -7.01032641697690E+01  1.48536251764059E+00
(PID.TID 0000.0001)  ploadbar=  1.01076482304981E+05
 cg2d: Sum(rhs),rhsMax =  -6.93757191234960E+01  1.50058500867722E+00
(PID.TID 0000.0001)  ploadbar=  1.01076216859916E+05
 cg2d: Sum(rhs),rhsMax =  -6.86592752713244E+01  1.51594537911087E+00
(PID.TID 0000.0001)  ploadbar=  1.01075951414852E+05
 cg2d: Sum(rhs),rhsMax =  -6.79628402710617E+01  1.53123477681912E+00
(PID.TID 0000.0001)  ploadbar=  1.01075685969788E+05
 cg2d: Sum(rhs),rhsMax =  -6.72940554283838E+01  1.54625786353500E+00
(PID.TID 0000.0001)  ploadbar=  1.01075420524724E+05
 cg2d: Sum(rhs),rhsMax =  -6.66576697151742E+01  1.56087101928961E+00
(PID.TID 0000.0001)  ploadbar=  1.01075155079660E+05
 cg2d: Sum(rhs),rhsMax =  -6.60586309307152E+01  1.57482968542267E+00
(PID.TID 0000.0001)  ploadbar=  1.01074560683551E+05
 cg2d: Sum(rhs),rhsMax =  -6.54839355696953E+01  1.58839908948343E+00
(PID.TID 0000.0001)  ploadbar=  1.01073966287441E+05
 cg2d: Sum(rhs),rhsMax =  -6.49392981858587E+01  1.60140567109145E+00
(PID.TID 0000.0001)  ploadbar=  1.01073371891332E+05
 cg2d: Sum(rhs),rhsMax =  -6.44328398448709E+01  1.61360715684489E+00
(PID.TID 0000.0001)  ploadbar=  1.01072777495223E+05
 cg2d: Sum(rhs),rhsMax =  -6.39693505136868E+01  1.62483645579917E+00
(PID.TID 0000.0001)  ploadbar=  1.01072183099114E+05
 cg2d: Sum(rhs),rhsMax =  -6.35536098644098E+01  1.63492184126112E+00
(PID.TID 0000.0001)  ploadbar=  1.01071588703005E+05
 cg2d: Sum(rhs),rhsMax =  -6.31920486530603E+01  1.64377109705127E+00
(PID.TID 0000.0001)  ploadbar=  1.01070485035033E+05
 cg2d: Sum(rhs),rhsMax =  -6.28854102983529E+01  1.65131608978385E+00
(PID.TID 0000.0001)  ploadbar=  1.01069381367061E+05
 cg2d: Sum(rhs),rhsMax =  -6.26380380790837E+01  1.65739369981168E+00
(PID.TID 0000.0001)  ploadbar=  1.01068277699090E+05
 cg2d: Sum(rhs),rhsMax =  -6.24506262917752E+01  1.66194739223812E+00
(PID.TID 0000.0001)  ploadbar=  1.01067174031118E+05
 cg2d: Sum(rhs),rhsMax =  -6.23168081270806E+01  1.66511395937087E+00
(PID.TID 0000.0001)  ploadbar=  1.01066070363146E+05
 cg2d: Sum(rhs),rhsMax =  -6.22271213697651E+01  1.66712411137901E+00
(PID.TID 0000.0001)  ploadbar=  1.01064966695175E+05
 cg2d: Sum(rhs),rhsMax =  -6.21772875908665E+01  1.66808619961006E+00
(PID.TID 0000.0001)  ploadbar=  1.01064870717161E+05
 cg2d: Sum(rhs),rhsMax =  -6.21562055600192E+01  1.66828822694258E+00
(PID.TID 0000.0001)  ploadbar=  1.01064774739148E+05
 cg2d: Sum(rhs),rhsMax =  -6.21637933380037E+01  1.66772461314512E+00
(PID.TID 0000.0001)  ploadbar=  1.01064678761135E+05
 cg2d: Sum(rhs),rhsMax =  -6.21965454496882E+01  1.66648708395091E+00
(PID.TID 0000.0001)  ploadbar=  1.01064582783122E+05
 cg2d: Sum(rhs),rhsMax =  -6.22490941816504E+01  1.66471682936556E+00
(PID.TID 0000.0001)  ploadbar=  1.01064486805108E+05
 cg2d: Sum(rhs),rhsMax =  -6.23192743381533E+01  1.66247318337095E+00
(PID.TID 0000.0001)  ploadbar=  1.01064390827095E+05
 cg2d: Sum(rhs),rhsMax =  -6.24055267019551E+01  1.65983504607091E+00
(PID.TID 0000.0001)  ploadbar=  1.01064498451587E+05
 cg2d: Sum(rhs),rhsMax =  -6.25008528347808E+01  1.65698707716333E+00
(PID.TID 0000.0001)  ploadbar=  1.01064606076078E+05
 cg2d: Sum(rhs),rhsMax =  -6.26093858678167E+01  1.65381728199077E+00
(PID.TID 0000.0001)  ploadbar=  1.01064713700570E+05
 cg2d: Sum(rhs),rhsMax =  -6.27247375887641E+01  1.65048710142970E+00
(PID.TID 0000.0001)  ploadbar=  1.01064821325061E+05
 cg2d: Sum(rhs),rhsMax =  -6.28404886098983E+01  1.64715774309189E+00
(PID.TID 0000.0001)  ploadbar=  1.01064928949553E+05
 cg2d: Sum(rhs),rhsMax =  -6.29520091345736E+01  1.64394053356767E+00
(PID.TID 0000.0001)  ploadbar=  1.01065036574044E+05
 cg2d: Sum(rhs),rhsMax =  -6.30487629618212E+01  1.64103687980953E+00
(PID.TID 0000.0001)  ploadbar=  1.01065396407990E+05
 cg2d: Sum(rhs),rhsMax =  -6.31371942490196E+01  1.63826994372894E+00
(PID.TID 0000.0001)  ploadbar=  1.01065756241936E+05
 cg2d: Sum(rhs),rhsMax =  -6.32131216736291E+01  1.63574198454044E+00
(PID.TID 0000.0001)  ploadbar=  1.01066116075882E+05
 cg2d: Sum(rhs),rhsMax =  -6.32720583193333E+01  1.63355908419760E+00
(PID.TID 0000.0001)  ploadbar=  1.01066475909828E+05
 cg2d: Sum(rhs),rhsMax =  -6.33137196070824E+01  1.63172331014738E+00
(PID.TID 0000.0001)  ploadbar=  1.01066835743774E+05
 cg2d: Sum(rhs),rhsMax =  -6.33387800736486E+01  1.63020790703130E+00
(PID.TID 0000.0001)  ploadbar=  1.01067195577720E+05
 cg2d: Sum(rhs),rhsMax =  -6.33800175345142E+01  1.62835091475825E+00
(PID.TID 0000.0001)  ploadbar=  1.01067726597111E+05
 cg2d: Sum(rhs),rhsMax =  -6.34230021839521E+01  1.62652091526428E+00
(PID.TID 0000.0001)  ploadbar=  1.01068257616502E+05
 cg2d: Sum(rhs),rhsMax =  -6.34648068084903E+01  1.62478538123782E+00
(PID.TID 0000.0001)  ploadbar=  1.01068788635894E+05
 cg2d: Sum(rhs),rhsMax =  -6.35077031009232E+01  1.62307795678131E+00
(PID.TID 0000.0001)  ploadbar=  1.01069319655285E+05
 cg2d: Sum(rhs),rhsMax =  -6.35518917948925E+01  1.62138434829322E+00
(PID.TID 0000.0001)  ploadbar=  1.01069850674676E+05
 cg2d: Sum(rhs),rhsMax =  -6.35997826165152E+01  1.61963530716538E+00
(PID.TID 0000.0001)  ploadbar=  1.01070381694067E+05
 cg2d: Sum(rhs),rhsMax =  -6.36434792930867E+01  1.61798844962623E+00
(PID.TID 0000.0001)  ploadbar=  1.01070616515185E+05
 cg2d: Sum(rhs),rhsMax =  -6.36915271691758E+01  1.61621568959531E+00
(PID.TID 0000.0001)  ploadbar=  1.01070851336303E+05
 cg2d: Sum(rhs),rhsMax =  -6.37385890328895E+01  1.61444628276570E+00
(PID.TID 0000.0001)  ploadbar=  1.01071086157421E+05
 cg2d: Sum(rhs),rhsMax =  -6.37828635596739E+01  1.61272234648633E+00
(PID.TID 0000.0001)  ploadbar=  1.01071320978539E+05
 cg2d: Sum(rhs),rhsMax =  -6.38269325639558E+01  1.61097478336912E+00
(PID.TID 0000.0001)  ploadbar=  1.01071555799657E+05
 cg2d: Sum(rhs),rhsMax =  -6.37036837467579E+01  1.61342466464412E+00
(PID.TID 0000.0001)  ploadbar=  1.01071790620775E+05
 cg2d: Sum(rhs),rhsMax =  -6.24714466645443E+01  1.64459797620741E+00
(PID.TID 0000.0001)  ploadbar=  1.01072157285476E+05
 cg2d: Sum(rhs),rhsMax =  -6.11919589770268E+01  1.67834376547879E+00
(PID.TID 0000.0001)  ploadbar=  1.01072523950178E+05
 cg2d: Sum(rhs),rhsMax =  -5.98597759885909E+01  1.71505727651630E+00
(PID.TID 0000.0001)  ploadbar=  1.01072890614880E+05
 cg2d: Sum(rhs),rhsMax =  -5.84271014548386E+01  1.75646939170042E+00
(PID.TID 0000.0001)  ploadbar=  1.01073257279581E+05
 cg2d: Sum(rhs),rhsMax =  -5.68862431516837E+01  1.80338929150717E+00
(PID.TID 0000.0001)  ploadbar=  1.01073623944283E+05
 cg2d: Sum(rhs),rhsMax =  -5.52606394430404E+01  1.85575540717211E+00
(PID.TID 0000.0001)  ploadbar=  1.01073990608985E+05
 cg2d: Sum(rhs),rhsMax =  -5.37607009341222E+01  1.90680265101435E+00
(PID.TID 0000.0001)  ploadbar=  1.01074588390674E+05
 cg2d: Sum(rhs),rhsMax =  -5.22999168820817E+01  1.95928070796206E+00
(PID.TID 0000.0001)  ploadbar=  1.01075186172363E+05
 cg2d: Sum(rhs),rhsMax =  -5.08850817018202E+01  2.01291730861212E+00
(PID.TID 0000.0001)  ploadbar=  1.01075783954053E+05
 cg2d: Sum(rhs),rhsMax =  -4.95562299502165E+01  2.06598779543915E+00
(PID.TID 0000.0001)  ploadbar=  1.01076381735742E+05
 cg2d: Sum(rhs),rhsMax =  -4.84817553316124E+01  2.11079524547685E+00
(PID.TID 0000.0001)  ploadbar=  1.01076979517431E+05
 cg2d: Sum(rhs),rhsMax =  -4.78415371354553E+01  2.13798754455898E+00
(PID.TID 0000.0001)  ploadbar=  1.01077577299121E+05
 cg2d: Sum(rhs),rhsMax =  -4.73503941287912E+01  2.15918029262077E+00
(PID.TID 0000.0001)  ploadbar=  1.01079120518597E+05
 cg2d: Sum(rhs),rhsMax =  -4.68583236086784E+01  2.18093512809891E+00
(PID.TID 0000.0001)  ploadbar=  1.01080663738074E+05
 cg2d: Sum(rhs),rhsMax =  -4.62787696818636E+01  2.20738125378806E+00
(PID.TID 0000.0001)  ploadbar=  1.01082206957551E+05
 cg2d: Sum(rhs),rhsMax =  -4.55967987307161E+01  2.23957220732962E+00
(PID.TID 0000.0001)  ploadbar=  1.01083750177028E+05
 cg2d: Sum(rhs),rhsMax =  -4.48389374491523E+01  2.27663328810325E+00
(PID.TID 0000.0001)  ploadbar=  1.01085293396505E+05
 cg2d: Sum(rhs),rhsMax =  -4.40816942597651E+01  2.31497263989653E+00
(PID.TID 0000.0001)  ploadbar=  1.01086836615981E+05
 cg2d: Sum(rhs),rhsMax =  -4.33547667274669E+01  2.35295738001853E+00
(PID.TID 0000.0001)  ploadbar=  1.01087362639198E+05
 cg2d: Sum(rhs),rhsMax =  -4.27499932853895E+01  2.38534152756976E+00
(PID.TID 0000.0001)  ploadbar=  1.01087888662415E+05
 cg2d: Sum(rhs),rhsMax =  -4.22907558545379E+01  2.41026268125743E+00
(PID.TID 0000.0001)  ploadbar=  1.01088414685632E+05
 cg2d: Sum(rhs),rhsMax =  -4.19719155808099E+01  2.42750710063302E+00
(PID.TID 0000.0001)  ploadbar=  1.01088940708849E+05
 cg2d: Sum(rhs),rhsMax =  -4.17702466613237E+01  2.43807791776551E+00
(PID.TID 0000.0001)  ploadbar=  1.01089466732066E+05
 cg2d: Sum(rhs),rhsMax =  -4.16346821628604E+01  2.44477888859554E+00
(PID.TID 0000.0001)  ploadbar=  1.01089992755283E+05
 cg2d: Sum(rhs),rhsMax =  -4.15503823062277E+01  2.44855810060136E+00
(PID.TID 0000.0001)  ploadbar=  1.01089010222588E+05
 cg2d: Sum(rhs),rhsMax =  -4.14213501495261E+01  2.45504983771929E+00
(PID.TID 0000.0001)  ploadbar=  1.01088027689894E+05
 cg2d: Sum(rhs),rhsMax =  -4.12529639737300E+01  2.46397154962382E+00
(PID.TID 0000.0001)  ploadbar=  1.01087045157200E+05
 cg2d: Sum(rhs),rhsMax =  -4.10614538723440E+01  2.47439370888932E+00
(PID.TID 0000.0001)  ploadbar=  1.01086062624506E+05
 cg2d: Sum(rhs),rhsMax =  -4.08689672857414E+01  2.48499480605766E+00
(PID.TID 0000.0001)  ploadbar=  1.01085080091811E+05
 cg2d: Sum(rhs),rhsMax =  -4.06659208740392E+01  2.49634638471373E+00
(PID.TID 0000.0001)  ploadbar=  1.01084097559117E+05
 cg2d: Sum(rhs),rhsMax =  -4.05408688320292E+01  2.50293076824629E+00
(PID.TID 0000.0001)  ploadbar=  1.01083947224312E+05
 cg2d: Sum(rhs),rhsMax =  -4.04872598921977E+01  2.50505984128082E+00
(PID.TID 0000.0001)  ploadbar=  1.01083796889506E+05
 cg2d: Sum(rhs),rhsMax =  -4.05084122264265E+01  2.50248717717701E+00
(PID.TID 0000.0001)  ploadbar=  1.01083646554701E+05
 cg2d: Sum(rhs),rhsMax =  -4.05874670373945E+01  2.49625918058326E+00
(PID.TID 0000.0001)  ploadbar=  1.01083496219896E+05
 cg2d: Sum(rhs),rhsMax =  -4.07138387847224E+01  2.48705939592271E+00
(PID.TID 0000.0001)  ploadbar=  1.01083345885091E+05
 cg2d: Sum(rhs),rhsMax =  -4.08672086462008E+01  2.47616361784842E+00
(PID.TID 0000.0001)  ploadbar=  1.01083195550286E+05
 cg2d: Sum(rhs),rhsMax =  -4.09527548389202E+01  2.46952004366797E+00
(PID.TID 0000.0001)  ploadbar=  1.01082952337915E+05
 cg2d: Sum(rhs),rhsMax =  -4.10252509288232E+01  2.46377139800604E+00
(PID.TID 0000.0001)  ploadbar=  1.01082709125544E+05
 cg2d: Sum(rhs),rhsMax =  -4.10950854981120E+01  2.45827761098741E+00
(PID.TID 0000.0001)  ploadbar=  1.01082465913174E+05
 cg2d: Sum(rhs),rhsMax =  -4.11617401028696E+01  2.45305766426951E+00
(PID.TID 0000.0001)  ploadbar=  1.01082222700803E+05
 cg2d: Sum(rhs),rhsMax =  -4.12333338509930E+01  2.44762069111038E+00
(PID.TID 0000.0001)  ploadbar=  1.01081979488433E+05
 cg2d: Sum(rhs),rhsMax =  -4.13243347486691E+01  2.44110625110448E+00
(PID.TID 0000.0001)  ploadbar=  1.01081736276062E+05
 cg2d: Sum(rhs),rhsMax =  -4.14049031947942E+01  2.43524927347416E+00
(PID.TID 0000.0001)  ploadbar=  1.01081417971937E+05
 cg2d: Sum(rhs),rhsMax =  -4.14829771034266E+01  2.42956450608622E+00
(PID.TID 0000.0001)  ploadbar=  1.01081099667813E+05
 cg2d: Sum(rhs),rhsMax =  -4.15707142563563E+01  2.42332782587200E+00
(PID.TID 0000.0001)  ploadbar=  1.01080781363688E+05
 cg2d: Sum(rhs),rhsMax =  -4.16775751589716E+01  2.41598812059160E+00
(PID.TID 0000.0001)  ploadbar=  1.01080463059564E+05
 cg2d: Sum(rhs),rhsMax =  -4.18128003067367E+01  2.40702397367144E+00
(PID.TID 0000.0001)  ploadbar=  1.01080144755439E+05
 cg2d: Sum(rhs),rhsMax =  -4.19844917127226E+01  2.39600440752867E+00
(PID.TID 0000.0001)  ploadbar=  1.01079826451314E+05
 cg2d: Sum(rhs),rhsMax =  -4.21781785018078E+01  2.38387106517555E+00
(PID.TID 0000.0001)  ploadbar=  1.01078690949841E+05
 cg2d: Sum(rhs),rhsMax =  -4.23892440099645E+01  2.37091350513652E+00
(PID.TID 0000.0001)  ploadbar=  1.01077555448368E+05
 cg2d: Sum(rhs),rhsMax =  -4.26140249609996E+01  2.35735926082317E+00
(PID.TID 0000.0001)  ploadbar=  1.01076419946895E+05
 cg2d: Sum(rhs),rhsMax =  -4.28465439528328E+01  2.34355091888637E+00
(PID.TID 0000.0001)  ploadbar=  1.01075284445422E+05
 cg2d: Sum(rhs),rhsMax =  -4.30780766378186E+01  2.32996204659236E+00
(PID.TID 0000.0001)  ploadbar=  1.01074148943949E+05
 cg2d: Sum(rhs),rhsMax =  -4.33040734546545E+01  2.31682246303969E+00
(PID.TID 0000.0001)  ploadbar=  1.01073013442476E+05
 cg2d: Sum(rhs),rhsMax =  -4.35293733732760E+01  2.30380100148816E+00
(PID.TID 0000.0001)  ploadbar=  1.01071170097209E+05
 cg2d: Sum(rhs),rhsMax =  -4.37411395764271E+01  2.29155468191222E+00
(PID.TID 0000.0001)  ploadbar=  1.01069326751941E+05
 cg2d: Sum(rhs),rhsMax =  -4.39466365492612E+01  2.27968081541991E+00
(PID.TID 0000.0001)  ploadbar=  1.01067483406673E+05
 cg2d: Sum(rhs),rhsMax =  -4.41459364659162E+01  2.26816346533519E+00
(PID.TID 0000.0001)  ploadbar=  1.01065640061406E+05
 cg2d: Sum(rhs),rhsMax =  -4.43214837719229E+01  2.25788486059127E+00
(PID.TID 0000.0001)  ploadbar=  1.01063796716138E+05
 cg2d: Sum(rhs),rhsMax =  -4.44737423373616E+01  2.24878568748091E+00
(PID.TID 0000.0001)  ploadbar=  1.01061953370870E+05
 cg2d: Sum(rhs),rhsMax =  -4.46404499953991E+01  2.23912002144058E+00
(PID.TID 0000.0001)  ploadbar=  1.01059779527537E+05
 cg2d: Sum(rhs),rhsMax =  -4.48067259401796E+01  2.22963948167521E+00
(PID.TID 0000.0001)  ploadbar=  1.01057605684204E+05
 cg2d: Sum(rhs),rhsMax =  -4.49768369237716E+01  2.22012327161821E+00
(PID.TID 0000.0001)  ploadbar=  1.01055431840872E+05
 cg2d: Sum(rhs),rhsMax =  -4.51501114451885E+01  2.21059617759247E+00
(PID.TID 0000.0001)  ploadbar=  1.01053257997539E+05
 cg2d: Sum(rhs),rhsMax =  -4.53279349674122E+01  2.20098449066357E+00
(PID.TID 0000.0001)  ploadbar=  1.01051084154206E+05
 cg2d: Sum(rhs),rhsMax =  -4.55151752302557E+01  2.19104461867107E+00
(PID.TID 0000.0001)  ploadbar=  1.01048910310873E+05
 cg2d: Sum(rhs),rhsMax =  -4.57092835748139E+01  2.18090680652085E+00
(PID.TID 0000.0001)  ploadbar=  1.01047445781009E+05
 cg2d: Sum(rhs),rhsMax =  -4.59127946167553E+01  2.17044567834415E+00
(PID.TID 0000.0001)  ploadbar=  1.01045981251144E+05
 cg2d: Sum(rhs),rhsMax =  -4.61171178229237E+01  2.16006413272357E+00
(PID.TID 0000.0001)  ploadbar=  1.01044516721279E+05
 cg2d: Sum(rhs),rhsMax =  -4.63269512912321E+01  2.14953581319940E+00
(PID.TID 0000.0001)  ploadbar=  1.01043052191415E+05
 cg2d: Sum(rhs),rhsMax =  -4.65425987500593E+01  2.13884274017443E+00
(PID.TID 0000.0001)  ploadbar=  1.01041587661550E+05
 cg2d: Sum(rhs),rhsMax =  -4.67641708560955E+01  2.12797642088325E+00
(PID.TID 0000.0001)  ploadbar=  1.01040123131686E+05
 cg2d: Sum(rhs),rhsMax =  -4.70054857393445E+01  2.11639811377529E+00
(PID.TID 0000.0001)  ploadbar=  1.01038754553247E+05
 cg2d: Sum(rhs),rhsMax =  -4.72786099028297E+01  2.10359483638472E+00
(PID.TID 0000.0001)  ploadbar=  1.01037385974808E+05
 cg2d: Sum(rhs),rhsMax =  -4.75943294821516E+01  2.08913500415729E+00
(PID.TID 0000.0001)  ploadbar=  1.01036017396369E+05
 cg2d: Sum(rhs),rhsMax =  -4.79681751002954E+01  2.07240983079224E+00
(PID.TID 0000.0001)  ploadbar=  1.01034648817930E+05
 cg2d: Sum(rhs),rhsMax =  -4.84080641808380E+01  2.05319506402511E+00
(PID.TID 0000.0001)  ploadbar=  1.01033280239491E+05
 cg2d: Sum(rhs),rhsMax =  -4.89258732688326E+01  2.03113624805789E+00
(PID.TID 0000.0001)  ploadbar=  1.01031911661052E+05
 cg2d: Sum(rhs),rhsMax =  -4.95058961051086E+01  2.00699497219506E+00
(PID.TID 0000.0001)  ploadbar=  1.01031162485320E+05
 cg2d: Sum(rhs),rhsMax =  -5.01354170657838E+01  1.98142597219496E+00
(PID.TID 0000.0001)  ploadbar=  1.01030413309589E+05
 cg2d: Sum(rhs),rhsMax =  -5.08037851287098E+01  1.95496009482866E+00
(PID.TID 0000.0001)  ploadbar=  1.01029664133857E+05
 cg2d: Sum(rhs),rhsMax =  -5.15017605234881E+01  1.92803332359736E+00
(PID.TID 0000.0001)  ploadbar=  1.01028914958125E+05
 cg2d: Sum(rhs),rhsMax =  -5.22298539525037E+01  1.90068691151019E+00
(PID.TID 0000.0001)  ploadbar=  1.01028165782393E+05
 cg2d: Sum(rhs),rhsMax =  -5.29952015541895E+01  1.87272704090319E+00
(PID.TID 0000.0001)  ploadbar=  1.01027416606662E+05
 cg2d: Sum(rhs),rhsMax =  -5.38237564433098E+01  1.84345403277662E+00
(PID.TID 0000.0001)  ploadbar=  1.01027138953624E+05
 cg2d: Sum(rhs),rhsMax =  -5.47259360877235E+01  1.81268181605105E+00
(PID.TID 0000.0001)  ploadbar=  1.01026861300586E+05
 cg2d: Sum(rhs),rhsMax =  -5.57647263926636E+01  1.77858845782774E+00
(PID.TID 0000.0001)  ploadbar=  1.01026583647548E+05
 cg2d: Sum(rhs),rhsMax =  -5.69751684638948E+01  1.74052486405470E+00
(PID.TID 0000.0001)  ploadbar=  1.01026305994510E+05
 cg2d: Sum(rhs),rhsMax =  -5.83690948527641E+01  1.69872235587079E+00
(PID.TID 0000.0001)  ploadbar=  1.01026028341472E+05
 cg2d: Sum(rhs),rhsMax =  -5.99547144775955E+01  1.65359241100774E+00
(PID.TID 0000.0001)  ploadbar=  1.01025750688434E+05
 cg2d: Sum(rhs),rhsMax =  -6.17496586572500E+01  1.60530617078178E+00
(PID.TID 0000.0001)  ploadbar=  1.01026486745797E+05
 cg2d: Sum(rhs),rhsMax =  -6.37074645394389E+01  1.55573349317504E+00
(PID.TID 0000.0001)  ploadbar=  1.01027222803159E+05
 cg2d: Sum(rhs),rhsMax =  -6.57882485567033E+01  1.50626514171115E+00
(PID.TID 0000.0001)  ploadbar=  1.01027958860522E+05
 cg2d: Sum(rhs),rhsMax =  -6.79585075711666E+01  1.45787584604364E+00
(PID.TID 0000.0001)  ploadbar=  1.01028694917884E+05
 cg2d: Sum(rhs),rhsMax =  -7.02063568625887E+01  1.41088512019757E+00
(PID.TID 0000.0001)  ploadbar=  1.01029430975246E+05
 cg2d: Sum(rhs),rhsMax =  -7.14532634851271E+01  1.38591685603109E+00
(PID.TID 0000.0001)  ploadbar=  1.01030167032609E+05
 cg2d: Sum(rhs),rhsMax =  -7.09702240171285E+01  1.39501875530859E+00
(PID.TID 0000.0001)  ploadbar=  1.01030258964243E+05
 cg2d: Sum(rhs),rhsMax =  -7.05944371817472E+01  1.40212918516697E+00
(PID.TID 0000.0001)  ploadbar=  1.01030350895878E+05
 cg2d: Sum(rhs),rhsMax =  -7.03251460143393E+01  1.40719814452105E+00
(PID.TID 0000.0001)  ploadbar=  1.01030442827512E+05
 cg2d: Sum(rhs),rhsMax =  -7.01352819896834E+01  1.41072100449015E+00
(PID.TID 0000.0001)  ploadbar=  1.01030534759147E+05
 cg2d: Sum(rhs),rhsMax =  -7.00156278474934E+01  1.41285495706338E+00
(PID.TID 0000.0001)  ploadbar=  1.01030626690781E+05
 cg2d: Sum(rhs),rhsMax =  -6.92677086787254E+01  1.42783742898842E+00
(PID.TID 0000.0001)  ploadbar=  1.01030718622416E+05
 cg2d: Sum(rhs),rhsMax =  -6.82721371435096E+01  1.44833912788251E+00
(PID.TID 0000.0001)  ploadbar=  1.01032181263947E+05
 cg2d: Sum(rhs),rhsMax =  -6.75290869144628E+01  1.46390543767779E+00
(PID.TID 0000.0001)  ploadbar=  1.01033643905477E+05
 cg2d: Sum(rhs),rhsMax =  -6.70266224311737E+01  1.47445223621147E+00
(PID.TID 0000.0001)  ploadbar=  1.01035106547008E+05
 cg2d: Sum(rhs),rhsMax =  -6.67209261198819E+01  1.48071667469695E+00
(PID.TID 0000.0001)  ploadbar=  1.01036569188538E+05
 cg2d: Sum(rhs),rhsMax =  -6.65479344101673E+01  1.48400913795890E+00
(PID.TID 0000.0001)  ploadbar=  1.01038031830069E+05
 cg2d: Sum(rhs),rhsMax =  -6.64331955333412E+01  1.48594729270791E+00
(PID.TID 0000.0001)  ploadbar=  1.01039494471600E+05
 cg2d: Sum(rhs),rhsMax =  -6.63251692593973E+01  1.48780104039639E+00
(PID.TID 0000.0001)  ploadbar=  1.01041084945959E+05
 cg2d: Sum(rhs),rhsMax =  -6.61243107125786E+01  1.49181246320346E+00
(PID.TID 0000.0001)  ploadbar=  1.01042675420319E+05
 cg2d: Sum(rhs),rhsMax =  -6.57808055182109E+01  1.49915275597065E+00
(PID.TID 0000.0001)  ploadbar=  1.01044265894679E+05
 cg2d: Sum(rhs),rhsMax =  -6.53098222112916E+01  1.50957148609305E+00
(PID.TID 0000.0001)  ploadbar=  1.01045856369039E+05
 cg2d: Sum(rhs),rhsMax =  -6.47648974790265E+01  1.52193532158757E+00
(PID.TID 0000.0001)  ploadbar=  1.01047446843399E+05
 cg2d: Sum(rhs),rhsMax =  -6.42041163487109E+01  1.53494485974381E+00
(PID.TID 0000.0001)  ploadbar=  1.01049037317758E+05
 cg2d: Sum(rhs),rhsMax =  -6.36935491356017E+01  1.54695242824121E+00
(PID.TID 0000.0001)  ploadbar=  1.01049491038180E+05
 cg2d: Sum(rhs),rhsMax =  -6.33024543159157E+01  1.55619216327838E+00
(PID.TID 0000.0001)  ploadbar=  1.01049944758602E+05
 cg2d: Sum(rhs),rhsMax =  -6.30600514630822E+01  1.56182783234073E+00
(PID.TID 0000.0001)  ploadbar=  1.01050398479024E+05
 cg2d: Sum(rhs),rhsMax =  -6.29415807919516E+01  1.56438567734809E+00
(PID.TID 0000.0001)  ploadbar=  1.01050852199446E+05
 cg2d: Sum(rhs),rhsMax =  -6.28998231351837E+01  1.56500195190053E+00
(PID.TID 0000.0001)  ploadbar=  1.01051305919868E+05
 cg2d: Sum(rhs),rhsMax =  -6.28721749724237E+01  1.56521714481660E+00
(PID.TID 0000.0001)  ploadbar=  1.01051759640290E+05
 cg2d: Sum(rhs),rhsMax =  -6.27172368577687E+01  1.56861796564984E+00
(PID.TID 0000.0001)  ploadbar=  1.01050387641339E+05
 cg2d: Sum(rhs),rhsMax =  -6.23784829741352E+01  1.57667354927400E+00
(PID.TID 0000.0001)  ploadbar=  1.01049015642388E+05
 cg2d: Sum(rhs),rhsMax =  -6.18547817511003E+01  1.58956176827316E+00
(PID.TID 0000.0001)  ploadbar=  1.01047643643438E+05
 cg2d: Sum(rhs),rhsMax =  -6.11776515762998E+01  1.60669309562164E+00
(PID.TID 0000.0001)  ploadbar=  1.01046271644487E+05
 cg2d: Sum(rhs),rhsMax =  -6.04491157217077E+01  1.62558556306794E+00
(PID.TID 0000.0001)  ploadbar=  1.01044899645537E+05
 cg2d: Sum(rhs),rhsMax =  -5.97761869962605E+01  1.64339941603165E+00
(PID.TID 0000.0001)  ploadbar=  1.01043527646586E+05
 cg2d: Sum(rhs),rhsMax =  -5.91488814130086E+01  1.66031651626725E+00
(PID.TID 0000.0001)  ploadbar=  1.01043069521883E+05
 cg2d: Sum(rhs),rhsMax =  -5.85759916010458E+01  1.67601229688919E+00
(PID.TID 0000.0001)  ploadbar=  1.01042611397180E+05
 cg2d: Sum(rhs),rhsMax =  -5.80547922280393E+01  1.69047917334523E+00
(PID.TID 0000.0001)  ploadbar=  1.01042153272477E+05
 cg2d: Sum(rhs),rhsMax =  -5.75762140380127E+01  1.70390636688444E+00
(PID.TID 0000.0001)  ploadbar=  1.01041695147774E+05
 cg2d: Sum(rhs),rhsMax =  -5.71280478494859E+01  1.71659681079058E+00
(PID.TID 0000.0001)  ploadbar=  1.01041237023071E+05
 cg2d: Sum(rhs),rhsMax =  -5.68497853223367E+01  1.72426699113585E+00
(PID.TID 0000.0001)  ploadbar=  1.01040778898368E+05
 cg2d: Sum(rhs),rhsMax =  -5.66107899759737E+01  1.73085506132450E+00
(PID.TID 0000.0001)  ploadbar=  1.01040997870372E+05
 cg2d: Sum(rhs),rhsMax =  -5.63526631641342E+01  1.73812913519820E+00
(PID.TID 0000.0001)  ploadbar=  1.01041216842375E+05
 cg2d: Sum(rhs),rhsMax =  -5.60526454334138E+01  1.74681164221391E+00
(PID.TID 0000.0001)  ploadbar=  1.01041435814379E+05
 cg2d: Sum(rhs),rhsMax =  -5.57128427754258E+01  1.75687510597422E+00
(PID.TID 0000.0001)  ploadbar=  1.01041654786382E+05
 cg2d: Sum(rhs),rhsMax =  -5.53541390738059E+01  1.76770173422556E+00
(PID.TID 0000.0001)  ploadbar=  1.01041873758386E+05
 cg2d: Sum(rhs),rhsMax =  -5.50088649433928E+01  1.77826535602247E+00
(PID.TID 0000.0001)  ploadbar=  1.01042092730389E+05
 cg2d: Sum(rhs),rhsMax =  -5.47215451901140E+01  1.78707628137679E+00
(PID.TID 0000.0001)  ploadbar=  1.01041289880972E+05
 cg2d: Sum(rhs),rhsMax =  -5.45320209445300E+01  1.79276050269763E+00
(PID.TID 0000.0001)  ploadbar=  1.01040487031554E+05
 cg2d: Sum(rhs),rhsMax =  -5.44499081722421E+01  1.79493256719462E+00
(PID.TID 0000.0001)  ploadbar=  1.01039684182136E+05
 cg2d: Sum(rhs),rhsMax =  -5.44645034971837E+01  1.79391490188867E+00
(PID.TID 0000.0001)  ploadbar=  1.01038881332718E+05
 cg2d: Sum(rhs),rhsMax =  -5.45513708485133E+01  1.79051035914198E+00
(PID.TID 0000.0001)  ploadbar=  1.01038078483300E+05
 cg2d: Sum(rhs),rhsMax =  -5.46824764063458E+01  1.78565095679517E+00
(PID.TID 0000.0001)  ploadbar=  1.01037275633882E+05
 cg2d: Sum(rhs),rhsMax =  -5.47942701239873E+01  1.78143370619831E+00
(PID.TID 0000.0001)  ploadbar=  1.01035219069191E+05
 cg2d: Sum(rhs),rhsMax =  -5.48405780654421E+01  1.77934668274989E+00
(PID.TID 0000.0001)  ploadbar=  1.01033162504499E+05
 cg2d: Sum(rhs),rhsMax =  -5.48023913058772E+01  1.77999797538636E+00
(PID.TID 0000.0001)  ploadbar=  1.01031105939808E+05
 cg2d: Sum(rhs),rhsMax =  -5.46606120120544E+01  1.78401853334061E+00
(PID.TID 0000.0001)  ploadbar=  1.01029049375116E+05
 cg2d: Sum(rhs),rhsMax =  -5.44297921622007E+01  1.79097466484322E+00
(PID.TID 0000.0001)  ploadbar=  1.01026992810425E+05
 cg2d: Sum(rhs),rhsMax =  -5.42117234717555E+01  1.79755146486413E+00
(PID.TID 0000.0001)  ploadbar=  1.01024936245733E+05
 cg2d: Sum(rhs),rhsMax =  -5.39967960759556E+01  1.80404123493638E+00
(PID.TID 0000.0001)  ploadbar=  1.01023398794708E+05
 cg2d: Sum(rhs),rhsMax =  -5.37905876558518E+01  1.81024468483577E+00
(PID.TID 0000.0001)  ploadbar=  1.01021861343683E+05
 cg2d: Sum(rhs),rhsMax =  -5.35988688000335E+01  1.81595475436946E+00
(PID.TID 0000.0001)  ploadbar=  1.01020323892658E+05
 cg2d: Sum(rhs),rhsMax =  -5.34217364553051E+01  1.82115351679116E+00
(PID.TID 0000.0001)  ploadbar=  1.01018786441632E+05
 cg2d: Sum(rhs),rhsMax =  -5.32543310748841E+01  1.82598974332400E+00
(PID.TID 0000.0001)  ploadbar=  1.01017248990607E+05
 cg2d: Sum(rhs),rhsMax =  -5.30902303116609E+01  1.83067341815760E+00
(PID.TID 0000.0001)  ploadbar=  1.01015711539582E+05
 cg2d: Sum(rhs),rhsMax =  -5.28610603323778E+01  1.83766130422589E+00
(PID.TID 0000.0001)  ploadbar=  1.01015914720811E+05
 cg2d: Sum(rhs),rhsMax =  -5.26056571139954E+01  1.84564730068050E+00
(PID.TID 0000.0001)  ploadbar=  1.01016117902041E+05
 cg2d: Sum(rhs),rhsMax =  -5.23496408555480E+01  1.85374696021127E+00
(PID.TID 0000.0001)  ploadbar=  1.01016321083270E+05
 cg2d: Sum(rhs),rhsMax =  -5.20951922254457E+01  1.86187840273926E+00
(PID.TID 0000.0001)  ploadbar=  1.01016524264499E+05
 cg2d: Sum(rhs),rhsMax =  -5.18461300180283E+01  1.86989989024545E+00
(PID.TID 0000.0001)  ploadbar=  1.01016727445728E+05
 cg2d: Sum(rhs),rhsMax =  -5.16894626953155E+01  1.87464239623711E+00
(PID.TID 0000.0001)  ploadbar=  1.01016930626958E+05
 cg2d: Sum(rhs),rhsMax =  -5.16668280577400E+01  1.87455814597554E+00
(PID.TID 0000.0001)  ploadbar=  1.01017855824590E+05
 cg2d: Sum(rhs),rhsMax =  -5.17443505938743E+01  1.87085764146721E+00
(PID.TID 0000.0001)  ploadbar=  1.01018781022222E+05
 cg2d: Sum(rhs),rhsMax =  -5.19360345644782E+01  1.86307246454715E+00
(PID.TID 0000.0001)  ploadbar=  1.01019706219854E+05
 cg2d: Sum(rhs),rhsMax =  -5.22278561916533E+01  1.85179364812250E+00
(PID.TID 0000.0001)  ploadbar=  1.01020631417486E+05
 cg2d: Sum(rhs),rhsMax =  -5.25973273235839E+01  1.83792412744591E+00
(PID.TID 0000.0001)  ploadbar=  1.01021556615119E+05
 cg2d: Sum(rhs),rhsMax =  -5.30149492306612E+01  1.82258853357301E+00
(PID.TID 0000.0001)  ploadbar=  1.01022481812751E+05
 cg2d: Sum(rhs),rhsMax =  -5.33884630855471E+01  1.80899489620587E+00
(PID.TID 0000.0001)  ploadbar=  1.01023954267499E+05
 cg2d: Sum(rhs),rhsMax =  -5.36672942688504E+01  1.79876465025703E+00
(PID.TID 0000.0001)  ploadbar=  1.01025426722248E+05
 cg2d: Sum(rhs),rhsMax =  -5.38298396053115E+01  1.79250764190037E+00
(PID.TID 0000.0001)  ploadbar=  1.01026899176997E+05
 cg2d: Sum(rhs),rhsMax =  -5.38799120497155E+01  1.79001609191749E+00
(PID.TID 0000.0001)  ploadbar=  1.01028371631745E+05
 cg2d: Sum(rhs),rhsMax =  -5.38388998737631E+01  1.79054721157998E+00
(PID.TID 0000.0001)  ploadbar=  1.01029844086494E+05
 cg2d: Sum(rhs),rhsMax =  -5.37588133177591E+01  1.79236902017864E+00
(PID.TID 0000.0001)  ploadbar=  1.01031316541243E+05
 cg2d: Sum(rhs),rhsMax =  -5.36527930808641E+01  1.79502035556848E+00
(PID.TID 0000.0001)  ploadbar=  1.01032351071995E+05
 cg2d: Sum(rhs),rhsMax =  -5.35272369491662E+01  1.79828815886585E+00
(PID.TID 0000.0001)  ploadbar=  1.01033385602747E+05
 cg2d: Sum(rhs),rhsMax =  -5.34579005528602E+01  1.79962251174754E+00
(PID.TID 0000.0001)  ploadbar=  1.01034420133500E+05
 cg2d: Sum(rhs),rhsMax =  -5.34275465026723E+01  1.79958844230922E+00
(PID.TID 0000.0001)  ploadbar=  1.01035454664252E+05
 cg2d: Sum(rhs),rhsMax =  -5.34321689262813E+01  1.79831165577688E+00
(PID.TID 0000.0001)  ploadbar=  1.01036489195005E+05
 cg2d: Sum(rhs),rhsMax =  -5.34481711993889E+01  1.79658123284185E+00
(PID.TID 0000.0001)  ploadbar=  1.01037523725757E+05
 cg2d: Sum(rhs),rhsMax =  -5.34517831581211E+01  1.79536355511952E+00
(PID.TID 0000.0001)  ploadbar=  1.01038023440727E+05
 cg2d: Sum(rhs),rhsMax =  -5.34347173409497E+01  1.79493513269858E+00
(PID.TID 0000.0001)  ploadbar=  1.01038523155697E+05
 cg2d: Sum(rhs),rhsMax =  -5.33944754932699E+01  1.79537661260180E+00
(PID.TID 0000.0001)  ploadbar=  1.01039022870667E+05
 cg2d: Sum(rhs),rhsMax =  -5.33440412095054E+01  1.79624916420495E+00
(PID.TID 0000.0001)  ploadbar=  1.01039522585636E+05
 cg2d: Sum(rhs),rhsMax =  -5.33076814151684E+01  1.79673201620361E+00
(PID.TID 0000.0001)  ploadbar=  1.01040022300606E+05
 cg2d: Sum(rhs),rhsMax =  -5.33155996599883E+01  1.79580192398324E+00
(PID.TID 0000.0001)  ploadbar=  1.01040522015576E+05
 cg2d: Sum(rhs),rhsMax =  -5.34320351268654E+01  1.79126444422525E+00
(PID.TID 0000.0001)  ploadbar=  1.01041189394084E+05
 cg2d: Sum(rhs),rhsMax =  -5.36607402488586E+01  1.78304111750037E+00
(PID.TID 0000.0001)  ploadbar=  1.01041856772592E+05
 cg2d: Sum(rhs),rhsMax =  -5.39976036964641E+01  1.77136200819087E+00
(PID.TID 0000.0001)  ploadbar=  1.01042524151100E+05
 cg2d: Sum(rhs),rhsMax =  -5.44181966456495E+01  1.75714471414703E+00
(PID.TID 0000.0001)  ploadbar=  1.01043191529608E+05
 cg2d: Sum(rhs),rhsMax =  -5.48889989970011E+01  1.74157397991273E+00
(PID.TID 0000.0001)  ploadbar=  1.01043858908116E+05
 cg2d: Sum(rhs),rhsMax =  -5.53685474999154E+01  1.72600851298873E+00
(PID.TID 0000.0001)  ploadbar=  1.01044526286624E+05
 cg2d: Sum(rhs),rhsMax =  -5.58341707478264E+01  1.71116689686188E+00
(PID.TID 0000.0001)  ploadbar=  1.01046031227134E+05
 cg2d: Sum(rhs),rhsMax =  -5.62461351929172E+01  1.69821402220996E+00
(PID.TID 0000.0001)  ploadbar=  1.01047536167645E+05
 cg2d: Sum(rhs),rhsMax =  -5.65790610818615E+01  1.68782561927143E+00
(PID.TID 0000.0001)  ploadbar=  1.01049041108155E+05
 cg2d: Sum(rhs),rhsMax =  -5.68173322022100E+01  1.68036950543172E+00
(PID.TID 0000.0001)  ploadbar=  1.01050546048665E+05
 cg2d: Sum(rhs),rhsMax =  -5.69654676448309E+01  1.67562691816367E+00
(PID.TID 0000.0001)  ploadbar=  1.01052050989175E+05
 cg2d: Sum(rhs),rhsMax =  -5.70422900003635E+01  1.67299089108163E+00
(PID.TID 0000.0001)  ploadbar=  1.01053555929685E+05
 cg2d: Sum(rhs),rhsMax =  -5.71048279371503E+01  1.67076776586279E+00
(PID.TID 0000.0001)  ploadbar=  1.01054064872729E+05
 cg2d: Sum(rhs),rhsMax =  -5.71964326780816E+01  1.66768127435229E+00
(PID.TID 0000.0001)  ploadbar=  1.01054573815773E+05
 cg2d: Sum(rhs),rhsMax =  -5.73241304673251E+01  1.66353001320933E+00
(PID.TID 0000.0001)  ploadbar=  1.01055082758817E+05
 cg2d: Sum(rhs),rhsMax =  -5.74746105877460E+01  1.65870654343224E+00
(PID.TID 0000.0001)  ploadbar=  1.01055591701861E+05
 cg2d: Sum(rhs),rhsMax =  -5.76196262657027E+01  1.65402094516054E+00
(PID.TID 0000.0001)  ploadbar=  1.01056100644905E+05
 cg2d: Sum(rhs),rhsMax =  -5.77213152179813E+01  1.65054635730913E+00
(PID.TID 0000.0001)  ploadbar=  1.01056609587948E+05
 cg2d: Sum(rhs),rhsMax =  -5.77580807302026E+01  1.64900409509258E+00
(PID.TID 0000.0001)  ploadbar=  1.01056359265517E+05
 cg2d: Sum(rhs),rhsMax =  -5.77223981659677E+01  1.64959788387789E+00
(PID.TID 0000.0001)  ploadbar=  1.01056108943085E+05
 cg2d: Sum(rhs),rhsMax =  -5.75984333813034E+01  1.65278139597634E+00
(PID.TID 0000.0001)  ploadbar=  1.01055858620653E+05
 cg2d: Sum(rhs),rhsMax =  -5.74194742212009E+01  1.65761948523221E+00
(PID.TID 0000.0001)  ploadbar=  1.01055608298222E+05
 cg2d: Sum(rhs),rhsMax =  -5.72283488904462E+01  1.66289192728545E+00
(PID.TID 0000.0001)  ploadbar=  1.01055357975790E+05
 cg2d: Sum(rhs),rhsMax =  -5.70743471726827E+01  1.66716072009943E+00
(PID.TID 0000.0001)  ploadbar=  1.01055107653358E+05
 cg2d: Sum(rhs),rhsMax =  -5.70208833324555E+01  1.66850317046514E+00
(PID.TID 0000.0001)  ploadbar=  1.01054738303831E+05
 cg2d: Sum(rhs),rhsMax =  -5.71155607988776E+01  1.66550874502234E+00
(PID.TID 0000.0001)  ploadbar=  1.01054368954303E+05
 cg2d: Sum(rhs),rhsMax =  -5.73658728192907E+01  1.65800102670222E+00
(PID.TID 0000.0001)  ploadbar=  1.01053999604775E+05
 cg2d: Sum(rhs),rhsMax =  -5.77478079092503E+01  1.64677967316051E+00
(PID.TID 0000.0001)  ploadbar=  1.01053630255248E+05
 cg2d: Sum(rhs),rhsMax =  -5.82189229505640E+01  1.63317831643341E+00
(PID.TID 0000.0001)  ploadbar=  1.01053260905720E+05
 cg2d: Sum(rhs),rhsMax =  -5.87244931833802E+01  1.61881680326186E+00
(PID.TID 0000.0001)  ploadbar=  1.01052891556192E+05
 cg2d: Sum(rhs),rhsMax =  -5.91823819724436E+01  1.60598785537979E+00
(PID.TID 0000.0001)  ploadbar=  1.01051776696970E+05
 cg2d: Sum(rhs),rhsMax =  -5.95133086093337E+01  1.59674576096677E+00
(PID.TID 0000.0001)  ploadbar=  1.01050661837748E+05
 cg2d: Sum(rhs),rhsMax =  -5.96962590236084E+01  1.59152875453938E+00
(PID.TID 0000.0001)  ploadbar=  1.01049546978526E+05
 cg2d: Sum(rhs),rhsMax =  -5.97564440470246E+01  1.58958519878991E+00
(PID.TID 0000.0001)  ploadbar=  1.01048432119304E+05
 cg2d: Sum(rhs),rhsMax =  -5.97442385952850E+01  1.58954438782028E+00
(PID.TID 0000.0001)  ploadbar=  1.01047317260082E+05
 cg2d: Sum(rhs),rhsMax =  -5.97213004089070E+01  1.58975775136015E+00
(PID.TID 0000.0001)  ploadbar=  1.01046202400860E+05
 cg2d: Sum(rhs),rhsMax =  -5.97530892818441E+01  1.58848717551343E+00
(PID.TID 0000.0001)  ploadbar=  1.01045408133791E+05
 cg2d: Sum(rhs),rhsMax =  -5.98753605735755E+01  1.58478385087867E+00
(PID.TID 0000.0001)  ploadbar=  1.01044613866723E+05
 cg2d: Sum(rhs),rhsMax =  -6.01071200627271E+01  1.57817344872450E+00
(PID.TID 0000.0001)  ploadbar=  1.01043819599654E+05
 cg2d: Sum(rhs),rhsMax =  -6.04484699331341E+01  1.56871879083782E+00
(PID.TID 0000.0001)  ploadbar=  1.01043025332586E+05
 cg2d: Sum(rhs),rhsMax =  -6.08731255842987E+01  1.55718379215656E+00
(PID.TID 0000.0001)  ploadbar=  1.01042231065517E+05
 cg2d: Sum(rhs),rhsMax =  -6.13387693032987E+01  1.54472109313011E+00
(PID.TID 0000.0001)  ploadbar=  1.01041436798448E+05
 cg2d: Sum(rhs),rhsMax =  -6.18529814420354E+01  1.53129844096346E+00
(PID.TID 0000.0001)  ploadbar=  1.01040403991755E+05
 cg2d: Sum(rhs),rhsMax =  -6.23593666622865E+01  1.51833978968087E+00
(PID.TID 0000.0001)  ploadbar=  1.01039371185061E+05
 cg2d: Sum(rhs),rhsMax =  -6.28156003883610E+01  1.50684001845265E+00
(PID.TID 0000.0001)  ploadbar=  1.01038338378367E+05
 cg2d: Sum(rhs),rhsMax =  -6.32323922402748E+01  1.49648304022620E+00
(PID.TID 0000.0001)  ploadbar=  1.01037305571673E+05
 cg2d: Sum(rhs),rhsMax =  -6.36398747961437E+01  1.48652232251260E+00
(PID.TID 0000.0001)  ploadbar=  1.01036272764980E+05
 cg2d: Sum(rhs),rhsMax =  -6.40829591375439E+01  1.47590819137533E+00
(PID.TID 0000.0001)  ploadbar=  1.01035239958286E+05
 cg2d: Sum(rhs),rhsMax =  -6.45681357438781E+01  1.46445868267476E+00
(PID.TID 0000.0001)  ploadbar=  1.01034331151968E+05
 cg2d: Sum(rhs),rhsMax =  -6.51159666928756E+01  1.45175228242284E+00
(PID.TID 0000.0001)  ploadbar=  1.01033422345650E+05
 cg2d: Sum(rhs),rhsMax =  -6.46455486325242E+01  1.46189447813409E+00
(PID.TID 0000.0001)  ploadbar=  1.01032513539333E+05
 cg2d: Sum(rhs),rhsMax =  -6.38707266929540E+01  1.47916498141647E+00
(PID.TID 0000.0001)  ploadbar=  1.01031604733015E+05
 cg2d: Sum(rhs),rhsMax =  -6.32317140822017E+01  1.49360433482013E+00
(PID.TID 0000.0001)  ploadbar=  1.01030695926697E+05
 cg2d: Sum(rhs),rhsMax =  -6.27348252699570E+01  1.50487700603541E+00
(PID.TID 0000.0001)  ploadbar=  1.01029787120379E+05
 cg2d: Sum(rhs),rhsMax =  -6.23591547216237E+01  1.51340490428452E+00
(PID.TID 0000.0001)  ploadbar=  1.01029636507982E+05
 cg2d: Sum(rhs),rhsMax =  -6.20895954430327E+01  1.51945411664828E+00
(PID.TID 0000.0001)  ploadbar=  1.01029485895584E+05
 cg2d: Sum(rhs),rhsMax =  -6.18877443944744E+01  1.52390104080136E+00
(PID.TID 0000.0001)  ploadbar=  1.01029335283186E+05
 cg2d: Sum(rhs),rhsMax =  -6.17629496744902E+01  1.52647845381744E+00
(PID.TID 0000.0001)  ploadbar=  1.01029184670788E+05
 cg2d: Sum(rhs),rhsMax =  -6.17325693287208E+01  1.52672914716814E+00
(PID.TID 0000.0001)  ploadbar=  1.01029034058391E+05
 cg2d: Sum(rhs),rhsMax =  -6.17941286771791E+01  1.52470372172931E+00
(PID.TID 0000.0001)  ploadbar=  1.01028883445993E+05
 cg2d: Sum(rhs),rhsMax =  -6.18567223219955E+01  1.52264667429178E+00
(PID.TID 0000.0001)  ploadbar=  1.01028459848973E+05
 cg2d: Sum(rhs),rhsMax =  -6.18686461548178E+01  1.52182192821031E+00
(PID.TID 0000.0001)  ploadbar=  1.01028036251953E+05
 cg2d: Sum(rhs),rhsMax =  -6.18466146026787E+01  1.52180813412340E+00
(PID.TID 0000.0001)  ploadbar=  1.01027612654932E+05
 cg2d: Sum(rhs),rhsMax =  -6.18158429061247E+01  1.52198257441335E+00
(PID.TID 0000.0001)  ploadbar=  1.01027189057912E+05
 cg2d: Sum(rhs),rhsMax =  -6.18009920195682E+01  1.52173621133814E+00
(PID.TID 0000.0001)  ploadbar=  1.01026765460892E+05
 cg2d: Sum(rhs),rhsMax =  -6.18197675936987E+01  1.52062655203780E+00
(PID.TID 0000.0001)  ploadbar=  1.01026341863872E+05
 cg2d: Sum(rhs),rhsMax =  -6.18277323419431E+01  1.51982358137311E+00
(PID.TID 0000.0001)  ploadbar=  1.01026216747816E+05
 cg2d: Sum(rhs),rhsMax =  -6.17762432844876E+01  1.52052236947612E+00
(PID.TID 0000.0001)  ploadbar=  1.01026091631760E+05
 cg2d: Sum(rhs),rhsMax =  -6.19575258778962E+01  1.51554273303190E+00
(PID.TID 0000.0001)  ploadbar=  1.01025966515704E+05
 cg2d: Sum(rhs),rhsMax =  -6.24002672575997E+01  1.50429444641733E+00
(PID.TID 0000.0001)  ploadbar=  1.01025841399648E+05
 cg2d: Sum(rhs),rhsMax =  -6.28347924070783E+01  1.49342681262821E+00
(PID.TID 0000.0001)  ploadbar=  1.01025716283592E+05
 cg2d: Sum(rhs),rhsMax =  -6.32785694521761E+01  1.48251618570107E+00
(PID.TID 0000.0001)  ploadbar=  1.01025591167536E+05
 cg2d: Sum(rhs),rhsMax =  -6.37411526452238E+01  1.47132669529449E+00
(PID.TID 0000.0001)  ploadbar=  1.01026907586526E+05
 cg2d: Sum(rhs),rhsMax =  -6.42138957286640E+01  1.46006599939185E+00
(PID.TID 0000.0001)  ploadbar=  1.01028224005516E+05
 cg2d: Sum(rhs),rhsMax =  -6.46905874408054E+01  1.44887587805944E+00
(PID.TID 0000.0001)  ploadbar=  1.01029540424505E+05
 cg2d: Sum(rhs),rhsMax =  -6.51615290969900E+01  1.43796814681854E+00
(PID.TID 0000.0001)  ploadbar=  1.01030856843495E+05
 cg2d: Sum(rhs),rhsMax =  -6.56198358177478E+01  1.42748058942789E+00
(PID.TID 0000.0001)  ploadbar=  1.01032173262484E+05
 cg2d: Sum(rhs),rhsMax =  -6.60604325712764E+01  1.41750394818985E+00
(PID.TID 0000.0001)  ploadbar=  1.01033489681474E+05
 cg2d: Sum(rhs),rhsMax =  -6.64696078826741E+01  1.40832292580047E+00
(PID.TID 0000.0001)  ploadbar=  1.01034110115420E+05
 cg2d: Sum(rhs),rhsMax =  -6.65481664926526E+01  1.40619742638131E+00
(PID.TID 0000.0001)  ploadbar=  1.01034730549365E+05
 cg2d: Sum(rhs),rhsMax =  -6.66467884642526E+01  1.40363958206041E+00
(PID.TID 0000.0001)  ploadbar=  1.01035350983311E+05
 cg2d: Sum(rhs),rhsMax =  -6.68564857659824E+01  1.39873971585501E+00
(PID.TID 0000.0001)  ploadbar=  1.01035971417257E+05
 cg2d: Sum(rhs),rhsMax =  -6.71514184077880E+01  1.39207301839207E+00
(PID.TID 0000.0001)  ploadbar=  1.01036591851203E+05
 cg2d: Sum(rhs),rhsMax =  -6.75091287719352E+01  1.38414177379322E+00
(PID.TID 0000.0001)  ploadbar=  1.01037212285149E+05
 cg2d: Sum(rhs),rhsMax =  -6.78517075313144E+01  1.37658615242020E+00
(PID.TID 0000.0001)  ploadbar=  1.01037278496460E+05
 cg2d: Sum(rhs),rhsMax =  -6.81713953145382E+01  1.36954833131259E+00
(PID.TID 0000.0001)  ploadbar=  1.01037344707772E+05
 cg2d: Sum(rhs),rhsMax =  -6.84633104805829E+01  1.36310396238737E+00
(PID.TID 0000.0001)  ploadbar=  1.01037410919083E+05
 cg2d: Sum(rhs),rhsMax =  -6.87248085647097E+01  1.35728703106944E+00
(PID.TID 0000.0001)  ploadbar=  1.01037477130394E+05
 cg2d: Sum(rhs),rhsMax =  -6.89414525322409E+01  1.35236201635585E+00
(PID.TID 0000.0001)  ploadbar=  1.01037543341706E+05
 cg2d: Sum(rhs),rhsMax =  -6.91343787531523E+01  1.34789184923549E+00
(PID.TID 0000.0001)  ploadbar=  1.01037609553017E+05
 cg2d: Sum(rhs),rhsMax =  -6.92561247002477E+01  1.34487249752442E+00
(PID.TID 0000.0001)  ploadbar=  1.01036062398609E+05
 cg2d: Sum(rhs),rhsMax =  -6.94308788061868E+01  1.34088141429020E+00
(PID.TID 0000.0001)  ploadbar=  1.01034515244201E+05
 cg2d: Sum(rhs),rhsMax =  -6.96755550433834E+01  1.33560654432698E+00
(PID.TID 0000.0001)  ploadbar=  1.01032968089792E+05
 cg2d: Sum(rhs),rhsMax =  -7.00382815416868E+01  1.32816030147786E+00
(PID.TID 0000.0001)  ploadbar=  1.01031420935384E+05
 cg2d: Sum(rhs),rhsMax =  -7.06129094528208E+01  1.31685928290965E+00
(PID.TID 0000.0001)  ploadbar=  1.01029873780976E+05
 cg2d: Sum(rhs),rhsMax =  -7.13282722599158E+01  1.30319255637409E+00
(PID.TID 0000.0001)  ploadbar=  1.01028326626568E+05
 cg2d: Sum(rhs),rhsMax =  -7.07931056148413E+01  1.31259884092876E+00
(PID.TID 0000.0001)  ploadbar=  1.01028130041051E+05
 cg2d: Sum(rhs),rhsMax =  -7.02580183576187E+01  1.32216042261313E+00
(PID.TID 0000.0001)  ploadbar=  1.01027933455534E+05
 cg2d: Sum(rhs),rhsMax =  -6.97730697833487E+01  1.33092290785792E+00
(PID.TID 0000.0001)  ploadbar=  1.01027736870018E+05
 cg2d: Sum(rhs),rhsMax =  -6.93333825133212E+01  1.33894063447343E+00
(PID.TID 0000.0001)  ploadbar=  1.01027540284501E+05
 cg2d: Sum(rhs),rhsMax =  -6.89382911905620E+01  1.34619028617053E+00
(PID.TID 0000.0001)  ploadbar=  1.01027343698984E+05
 cg2d: Sum(rhs),rhsMax =  -6.85894803167960E+01  1.35260392175888E+00
(PID.TID 0000.0001)  ploadbar=  1.01027147113467E+05
 cg2d: Sum(rhs),rhsMax =  -6.88954194253211E+01  1.34617426506123E+00
(PID.TID 0000.0001)  ploadbar=  1.01025685098762E+05
 cg2d: Sum(rhs),rhsMax =  -6.98629193109158E+01  1.32711736237440E+00
(PID.TID 0000.0001)  ploadbar=  1.01024223084057E+05
 cg2d: Sum(rhs),rhsMax =  -7.09524287390195E+01  1.30633043272552E+00
(PID.TID 0000.0001)  ploadbar=  1.01022761069352E+05
 cg2d: Sum(rhs),rhsMax =  -7.21317400688622E+01  1.28456729675955E+00
(PID.TID 0000.0001)  ploadbar=  1.01021299054647E+05
 cg2d: Sum(rhs),rhsMax =  -7.33482546767774E+01  1.26285559727364E+00
(PID.TID 0000.0001)  ploadbar=  1.01019837039942E+05
 cg2d: Sum(rhs),rhsMax =  -7.45524392566207E+01  1.24204625311682E+00
(PID.TID 0000.0001)  ploadbar=  1.01018375025237E+05
 cg2d: Sum(rhs),rhsMax =  -7.56708802082090E+01  1.22329116637816E+00
(PID.TID 0000.0001)  ploadbar=  1.01017781457338E+05
 cg2d: Sum(rhs),rhsMax =  -7.61288989561045E+01  1.21554112505257E+00
(PID.TID 0000.0001)  ploadbar=  1.01017187889439E+05
 cg2d: Sum(rhs),rhsMax =  -7.55919189747704E+01  1.22378343720395E+00
(PID.TID 0000.0001)  ploadbar=  1.01016594321540E+05
 cg2d: Sum(rhs),rhsMax =  -7.51073562976404E+01  1.23127740525415E+00
(PID.TID 0000.0001)  ploadbar=  1.01016000753641E+05
 cg2d: Sum(rhs),rhsMax =  -7.46720335570757E+01  1.23803954753273E+00
(PID.TID 0000.0001)  ploadbar=  1.01015407185742E+05
 cg2d: Sum(rhs),rhsMax =  -7.36724297827666E+01  1.25439716576795E+00
(PID.TID 0000.0001)  ploadbar=  1.01014813617843E+05
 cg2d: Sum(rhs),rhsMax =  -7.27863060456381E+01  1.26927438945876E+00
(PID.TID 0000.0001)  ploadbar=  1.01012779750481E+05
 cg2d: Sum(rhs),rhsMax =  -7.19396526905726E+01  1.28386205448021E+00
(PID.TID 0000.0001)  ploadbar=  1.01010745883119E+05
 cg2d: Sum(rhs),rhsMax =  -7.12159111766282E+01  1.29659913420868E+00
(PID.TID 0000.0001)  ploadbar=  1.01008712015757E+05
 cg2d: Sum(rhs),rhsMax =  -7.06310200512585E+01  1.30706126763425E+00
(PID.TID 0000.0001)  ploadbar=  1.01006678148394E+05
 cg2d: Sum(rhs),rhsMax =  -7.01404845794768E+01  1.31596060580389E+00
(PID.TID 0000.0001)  ploadbar=  1.01004644281032E+05
 cg2d: Sum(rhs),rhsMax =  -6.97349068061889E+01  1.32340315118953E+00
(PID.TID 0000.0001)  ploadbar=  1.01002610413670E+05
 cg2d: Sum(rhs),rhsMax =  -6.94009790922238E+01  1.32954513805049E+00
(PID.TID 0000.0001)  ploadbar=  1.01001064189936E+05
 cg2d: Sum(rhs),rhsMax =  -6.91232378881365E+01  1.33464479093973E+00
(PID.TID 0000.0001)  ploadbar=  1.00999517966202E+05
 cg2d: Sum(rhs),rhsMax =  -6.88923864010070E+01  1.33885531199835E+00
(PID.TID 0000.0001)  ploadbar=  1.00997971742467E+05
 cg2d: Sum(rhs),rhsMax =  -6.87002914394489E+01  1.34231374590511E+00
(PID.TID 0000.0001)  ploadbar=  1.00996425518733E+05
 cg2d: Sum(rhs),rhsMax =  -6.85398426186316E+01  1.34514451886191E+00
(PID.TID 0000.0001)  ploadbar=  1.00994879294999E+05
 cg2d: Sum(rhs),rhsMax =  -6.84038961540754E+01  1.34747634253080E+00
(PID.TID 0000.0001)  ploadbar=  1.00993333071264E+05
 cg2d: Sum(rhs),rhsMax =  -6.83558214560074E+01  1.34808876808909E+00
(PID.TID 0000.0001)  ploadbar=  1.00992178829276E+05
 cg2d: Sum(rhs),rhsMax =  -6.83513184944904E+01  1.34784738206192E+00
(PID.TID 0000.0001)  ploadbar=  1.00991024587287E+05
 cg2d: Sum(rhs),rhsMax =  -6.83831451935413E+01  1.34689231341741E+00
(PID.TID 0000.0001)  ploadbar=  1.00989870345299E+05
 cg2d: Sum(rhs),rhsMax =  -6.84440264649825E+01  1.34536632976879E+00
(PID.TID 0000.0001)  ploadbar=  1.00988716103310E+05
 cg2d: Sum(rhs),rhsMax =  -6.89148816989118E+01  1.33584303894617E+00
(PID.TID 0000.0001)  ploadbar=  1.00987561861322E+05
 cg2d: Sum(rhs),rhsMax =  -6.90230775539873E+01  1.33340915115756E+00
(PID.TID 0000.0001)  ploadbar=  1.00986407619334E+05
 cg2d: Sum(rhs),rhsMax =  -6.86885671075590E+01  1.33949601741716E+00
(PID.TID 0000.0001)  ploadbar=  1.00984567320329E+05
 cg2d: Sum(rhs),rhsMax =  -6.83461891258521E+01  1.34572612814179E+00
(PID.TID 0000.0001)  ploadbar=  1.00982727021324E+05
 cg2d: Sum(rhs),rhsMax =  -6.80022556283851E+01  1.35197084628165E+00
(PID.TID 0000.0001)  ploadbar=  1.00980886722320E+05
 cg2d: Sum(rhs),rhsMax =  -6.73729203368263E+01  1.36394655066353E+00
(PID.TID 0000.0001)  ploadbar=  1.00979046423315E+05
 cg2d: Sum(rhs),rhsMax =  -6.63613859601921E+01  1.38398330414645E+00
(PID.TID 0000.0001)  ploadbar=  1.00977206124311E+05
 cg2d: Sum(rhs),rhsMax =  -6.54338080542384E+01  1.40274177020061E+00
(PID.TID 0000.0001)  ploadbar=  1.00975365825306E+05
 cg2d: Sum(rhs),rhsMax =  -6.45657387626746E+01  1.42081569836281E+00
(PID.TID 0000.0001)  ploadbar=  1.00975145213454E+05
 cg2d: Sum(rhs),rhsMax =  -6.37375024093171E+01  1.43856833563159E+00
(PID.TID 0000.0001)  ploadbar=  1.00974924601601E+05
 cg2d: Sum(rhs),rhsMax =  -6.29529987032380E+01  1.45586021462258E+00
(PID.TID 0000.0001)  ploadbar=  1.00974703989749E+05
 cg2d: Sum(rhs),rhsMax =  -6.22317142168088E+01  1.47217070766709E+00
(PID.TID 0000.0001)  ploadbar=  1.00974483377897E+05
 cg2d: Sum(rhs),rhsMax =  -6.15619723020151E+01  1.48769101923042E+00
(PID.TID 0000.0001)  ploadbar=  1.00974262766044E+05
 cg2d: Sum(rhs),rhsMax =  -6.09376754672062E+01  1.50250113418045E+00
(PID.TID 0000.0001)  ploadbar=  1.00974042154192E+05
 cg2d: Sum(rhs),rhsMax =  -6.03863102770679E+01  1.51577148039331E+00
(PID.TID 0000.0001)  ploadbar=  1.00975387966979E+05
 cg2d: Sum(rhs),rhsMax =  -5.99091839213924E+01  1.52737272667715E+00
(PID.TID 0000.0001)  ploadbar=  1.00976733779766E+05
 cg2d: Sum(rhs),rhsMax =  -5.95406604333524E+01  1.53632655712009E+00
(PID.TID 0000.0001)  ploadbar=  1.00978079592553E+05
 cg2d: Sum(rhs),rhsMax =  -5.93357251950604E+01  1.54110184278942E+00
(PID.TID 0000.0001)  ploadbar=  1.00979425405340E+05
 cg2d: Sum(rhs),rhsMax =  -5.92965866033059E+01  1.54155218708580E+00
(PID.TID 0000.0001)  ploadbar=  1.00980771218127E+05
 cg2d: Sum(rhs),rhsMax =  -5.94820014138260E+01  1.53614454824970E+00
(PID.TID 0000.0001)  ploadbar=  1.00982117030914E+05
 cg2d: Sum(rhs),rhsMax =  -5.97091603671174E+01  1.52971464347046E+00
(PID.TID 0000.0001)  ploadbar=  1.00984263034414E+05
 cg2d: Sum(rhs),rhsMax =  -5.99528935365961E+01  1.52292402975101E+00
(PID.TID 0000.0001)  ploadbar=  1.00986409037914E+05
 cg2d: Sum(rhs),rhsMax =  -6.01832882302650E+01  1.51653404476096E+00
(PID.TID 0000.0001)  ploadbar=  1.00988555041414E+05
 cg2d: Sum(rhs),rhsMax =  -6.03882051733044E+01  1.51083394876875E+00
(PID.TID 0000.0001)  ploadbar=  1.00990701044914E+05
 cg2d: Sum(rhs),rhsMax =  -6.05821431188447E+01  1.50544074372539E+00
(PID.TID 0000.0001)  ploadbar=  1.00992847048414E+05
 cg2d: Sum(rhs),rhsMax =  -6.07694720916775E+01  1.50023497980748E+00
(PID.TID 0000.0001)  ploadbar=  1.00994993051914E+05
 cg2d: Sum(rhs),rhsMax =  -6.09181220718485E+01  1.49596864742453E+00
(PID.TID 0000.0001)  ploadbar=  1.00996302107022E+05
 cg2d: Sum(rhs),rhsMax =  -6.10495312305797E+01  1.49209602635297E+00
(PID.TID 0000.0001)  ploadbar=  1.00997611162131E+05
 cg2d: Sum(rhs),rhsMax =  -6.11846075759872E+01  1.48809628543536E+00
(PID.TID 0000.0001)  ploadbar=  1.00998920217239E+05
 cg2d: Sum(rhs),rhsMax =  -6.13427116957805E+01  1.48349726692898E+00
(PID.TID 0000.0001)  ploadbar=  1.01000229272347E+05
 cg2d: Sum(rhs),rhsMax =  -6.15393624704427E+01  1.47793159198982E+00
(PID.TID 0000.0001)  ploadbar=  1.01001538327456E+05
 cg2d: Sum(rhs),rhsMax =  -6.17752032967889E+01  1.47139927617872E+00
(PID.TID 0000.0001)  ploadbar=  1.01002847382564E+05
 cg2d: Sum(rhs),rhsMax =  -6.19443516040744E+01  1.46657697403372E+00
(PID.TID 0000.0001)  ploadbar=  1.01003602346497E+05
 cg2d: Sum(rhs),rhsMax =  -6.20035351151140E+01  1.46445256018090E+00
(PID.TID 0000.0001)  ploadbar=  1.01004357310430E+05
 cg2d: Sum(rhs),rhsMax =  -6.19416650470296E+01  1.46526641236946E+00
(PID.TID 0000.0001)  ploadbar=  1.01005112274362E+05
 cg2d: Sum(rhs),rhsMax =  -6.18541142874773E+01  1.46676040607350E+00
(PID.TID 0000.0001)  ploadbar=  1.01005867238295E+05
 cg2d: Sum(rhs),rhsMax =  -6.17054964306245E+01  1.46977548966910E+00
(PID.TID 0000.0001)  ploadbar=  1.01006622202228E+05
 cg2d: Sum(rhs),rhsMax =  -6.15182285760389E+01  1.47379154772813E+00
(PID.TID 0000.0001)  ploadbar=  1.01007377166160E+05
 cg2d: Sum(rhs),rhsMax =  -6.13162139236411E+01  1.47817258494923E+00
(PID.TID 0000.0001)  ploadbar=  1.01007678338238E+05
 cg2d: Sum(rhs),rhsMax =  -6.10826385536870E+01  1.48332847827059E+00
(PID.TID 0000.0001)  ploadbar=  1.01007979510316E+05
 cg2d: Sum(rhs),rhsMax =  -6.07337612906781E+01  1.49132614816565E+00
(PID.TID 0000.0001)  ploadbar=  1.01008280682394E+05
 cg2d: Sum(rhs),rhsMax =  -6.04552966979047E+01  1.49764406657922E+00
(PID.TID 0000.0001)  ploadbar=  1.01008581854472E+05
 cg2d: Sum(rhs),rhsMax =  -6.02487946329978E+01  1.50219181033132E+00
(PID.TID 0000.0001)  ploadbar=  1.01008883026550E+05
 cg2d: Sum(rhs),rhsMax =  -6.01104609346429E+01  1.50502905493412E+00
(PID.TID 0000.0001)  ploadbar=  1.01009184198628E+05
 cg2d: Sum(rhs),rhsMax =  -6.00827535782916E+01  1.50512921375365E+00
(PID.TID 0000.0001)  ploadbar=  1.01010346408673E+05
 cg2d: Sum(rhs),rhsMax =  -6.01533154872058E+01  1.50279434765573E+00
(PID.TID 0000.0001)  ploadbar=  1.01011508618718E+05
 cg2d: Sum(rhs),rhsMax =  -6.03499616105464E+01  1.49734904659376E+00
(PID.TID 0000.0001)  ploadbar=  1.01012670828764E+05
 cg2d: Sum(rhs),rhsMax =  -6.06297147197859E+01  1.48991160273391E+00
(PID.TID 0000.0001)  ploadbar=  1.01013833038809E+05
 cg2d: Sum(rhs),rhsMax =  -6.09670114641673E+01  1.48115822934361E+00
(PID.TID 0000.0001)  ploadbar=  1.01014995248854E+05
 cg2d: Sum(rhs),rhsMax =  -6.13490823090694E+01  1.47143908698188E+00
(PID.TID 0000.0001)  ploadbar=  1.01016157458900E+05
 cg2d: Sum(rhs),rhsMax =  -6.17128854717682E+01  1.46223879978969E+00
(PID.TID 0000.0001)  ploadbar=  1.01016220913864E+05
 cg2d: Sum(rhs),rhsMax =  -6.20728770629139E+01  1.45319750051552E+00
(PID.TID 0000.0001)  ploadbar=  1.01016284368828E+05
 cg2d: Sum(rhs),rhsMax =  -6.24293839107823E+01  1.44429880913683E+00
(PID.TID 0000.0001)  ploadbar=  1.01016347823792E+05
 cg2d: Sum(rhs),rhsMax =  -6.27889328577404E+01  1.43538530132758E+00
(PID.TID 0000.0001)  ploadbar=  1.01016411278756E+05
 cg2d: Sum(rhs),rhsMax =  -6.27455640627567E+01  1.43568460239618E+00
(PID.TID 0000.0001)  ploadbar=  1.01016474733720E+05
 cg2d: Sum(rhs),rhsMax =  -6.25821180602725E+01  1.43868804793344E+00
(PID.TID 0000.0001)  ploadbar=  1.01016538188684E+05
 cg2d: Sum(rhs),rhsMax =  -6.24674235195553E+01  1.44066587773438E+00
(PID.TID 0000.0001)  ploadbar=  1.01016526352173E+05
 cg2d: Sum(rhs),rhsMax =  -6.24321992066994E+01  1.44089835099293E+00
(PID.TID 0000.0001)  ploadbar=  1.01016514515661E+05
 cg2d: Sum(rhs),rhsMax =  -6.25103738371450E+01  1.43859324693873E+00
(PID.TID 0000.0001)  ploadbar=  1.01016502679151E+05
 cg2d: Sum(rhs),rhsMax =  -6.25371350032753E+01  1.43754599771790E+00
(PID.TID 0000.0001)  ploadbar=  1.01016490842640E+05
 cg2d: Sum(rhs),rhsMax =  -6.25410542103141E+01  1.43708926477506E+00
(PID.TID 0000.0001)  ploadbar=  1.01016479006129E+05
 cg2d: Sum(rhs),rhsMax =  -6.25429779119991E+01  1.43674078834561E+00
(PID.TID 0000.0001)  ploadbar=  1.01016467169618E+05
 cg2d: Sum(rhs),rhsMax =  -6.24371326773187E+01  1.43883059174263E+00
(PID.TID 0000.0001)  ploadbar=  1.01016464372037E+05
 cg2d: Sum(rhs),rhsMax =  -6.22068496241450E+01  1.44376637216136E+00
(PID.TID 0000.0001)  ploadbar=  1.01016461574456E+05
 cg2d: Sum(rhs),rhsMax =  -6.19588114381335E+01  1.44910784316746E+00
(PID.TID 0000.0001)  ploadbar=  1.01016458776876E+05
 cg2d: Sum(rhs),rhsMax =  -6.17257477680313E+01  1.45409232721267E+00
(PID.TID 0000.0001)  ploadbar=  1.01016455979295E+05
 cg2d: Sum(rhs),rhsMax =  -6.15041297119699E+01  1.45879294830867E+00
(PID.TID 0000.0001)  ploadbar=  1.01016453181714E+05
 cg2d: Sum(rhs),rhsMax =  -6.13052148335868E+01  1.46293173771883E+00
(PID.TID 0000.0001)  ploadbar=  1.01016450384134E+05
 cg2d: Sum(rhs),rhsMax =  -6.11923008317929E+01  1.46504725637301E+00
(PID.TID 0000.0001)  ploadbar=  1.01016073625951E+05
 cg2d: Sum(rhs),rhsMax =  -6.08158898523553E+01  1.47353625977462E+00
(PID.TID 0000.0001)  ploadbar=  1.01015696867767E+05
 cg2d: Sum(rhs),rhsMax =  -6.03687583811984E+01  1.48387073811254E+00
(PID.TID 0000.0001)  ploadbar=  1.01015320109584E+05
 cg2d: Sum(rhs),rhsMax =  -5.99719818698424E+01  1.49310323930739E+00
(PID.TID 0000.0001)  ploadbar=  1.01014943351401E+05
 cg2d: Sum(rhs),rhsMax =  -5.96112442800011E+01  1.50154423584955E+00
(PID.TID 0000.0001)  ploadbar=  1.01014566593218E+05
 cg2d: Sum(rhs),rhsMax =  -5.93017206322623E+01  1.50876889139919E+00
(PID.TID 0000.0001)  ploadbar=  1.01014189835035E+05
 cg2d: Sum(rhs),rhsMax =  -5.90700685715062E+01  1.51398944322404E+00
(PID.TID 0000.0001)  ploadbar=  1.01014384518494E+05
 cg2d: Sum(rhs),rhsMax =  -5.89444672147902E+01  1.51643371066071E+00
(PID.TID 0000.0001)  ploadbar=  1.01014579201953E+05
 cg2d: Sum(rhs),rhsMax =  -5.89387263406834E+01  1.51571124787007E+00
(PID.TID 0000.0001)  ploadbar=  1.01014773885412E+05
 cg2d: Sum(rhs),rhsMax =  -5.90584375283872E+01  1.51167784886381E+00
(PID.TID 0000.0001)  ploadbar=  1.01014968568870E+05
 cg2d: Sum(rhs),rhsMax =  -5.93057125064443E+01  1.50432042085776E+00
(PID.TID 0000.0001)  ploadbar=  1.01015163252329E+05
 cg2d: Sum(rhs),rhsMax =  -5.96802521242568E+01  1.49372925483519E+00
(PID.TID 0000.0001)  ploadbar=  1.01015357935788E+05
 cg2d: Sum(rhs),rhsMax =  -6.01094773141161E+01  1.48201050838888E+00
(PID.TID 0000.0001)  ploadbar=  1.01017287262426E+05
 cg2d: Sum(rhs),rhsMax =  -6.05733201696652E+01  1.46970426791855E+00
(PID.TID 0000.0001)  ploadbar=  1.01019216589063E+05
 cg2d: Sum(rhs),rhsMax =  -6.10620616028402E+01  1.45707349959847E+00
(PID.TID 0000.0001)  ploadbar=  1.01021145915701E+05
 cg2d: Sum(rhs),rhsMax =  -6.15747086084887E+01  1.44415833261613E+00
(PID.TID 0000.0001)  ploadbar=  1.01023075242338E+05
 cg2d: Sum(rhs),rhsMax =  -6.21229865365631E+01  1.43070415757444E+00
(PID.TID 0000.0001)  ploadbar=  1.01025004568976E+05
 cg2d: Sum(rhs),rhsMax =  -6.27303756997016E+01  1.41621245229713E+00
(PID.TID 0000.0001)  ploadbar=  1.01026933895614E+05
 cg2d: Sum(rhs),rhsMax =  -6.33543615901859E+01  1.40162887595218E+00
(PID.TID 0000.0001)  ploadbar=  1.01027798362240E+05
 cg2d: Sum(rhs),rhsMax =  -6.40108188405015E+01  1.38661929867316E+00
(PID.TID 0000.0001)  ploadbar=  1.01028662828866E+05
 cg2d: Sum(rhs),rhsMax =  -6.47032313710107E+01  1.37114192012326E+00
(PID.TID 0000.0001)  ploadbar=  1.01029527295493E+05
 cg2d: Sum(rhs),rhsMax =  -6.54375690253327E+01  1.35510904203621E+00
(PID.TID 0000.0001)  ploadbar=  1.01030391762119E+05
 cg2d: Sum(rhs),rhsMax =  -6.62132167428858E+01  1.33857841805774E+00
(PID.TID 0000.0001)  ploadbar=  1.01031256228745E+05
 cg2d: Sum(rhs),rhsMax =  -6.70244379371502E+01  1.32170657642661E+00
(PID.TID 0000.0001)  ploadbar=  1.01032120695372E+05
 cg2d: Sum(rhs),rhsMax =  -6.78561371558636E+01  1.30485791771275E+00
(PID.TID 0000.0001)  ploadbar=  1.01032101010373E+05
 cg2d: Sum(rhs),rhsMax =  -6.87166494816095E+01  1.28788624451797E+00
(PID.TID 0000.0001)  ploadbar=  1.01032081325374E+05
 cg2d: Sum(rhs),rhsMax =  -6.95939889890870E+01  1.27102949960292E+00
(PID.TID 0000.0001)  ploadbar=  1.01032061640376E+05
 cg2d: Sum(rhs),rhsMax =  -7.05036597249290E+01  1.25401062992623E+00
(PID.TID 0000.0001)  ploadbar=  1.01032041955377E+05
 cg2d: Sum(rhs),rhsMax =  -7.14336801854410E+01  1.23705921974905E+00
(PID.TID 0000.0001)  ploadbar=  1.01032022270379E+05
 cg2d: Sum(rhs),rhsMax =  -7.23789625886651E+01  1.22026528914114E+00
(PID.TID 0000.0001)  ploadbar=  1.01032002585380E+05
 cg2d: Sum(rhs),rhsMax =  -7.33300175221663E+01  1.20379485480329E+00
(PID.TID 0000.0001)  ploadbar=  1.01031874190495E+05
 cg2d: Sum(rhs),rhsMax =  -7.35309569015811E+01  1.19984403261580E+00
(PID.TID 0000.0001)  ploadbar=  1.01031745795609E+05
 cg2d: Sum(rhs),rhsMax =  -7.32952899686099E+01  1.20301400585418E+00
(PID.TID 0000.0001)  ploadbar=  1.01031617400723E+05
 cg2d: Sum(rhs),rhsMax =  -7.30552510980066E+01  1.20624692873109E+00
(PID.TID 0000.0001)  ploadbar=  1.01031489005838E+05
 cg2d: Sum(rhs),rhsMax =  -7.28100598855270E+01  1.20955201473404E+00
(PID.TID 0000.0001)  ploadbar=  1.01031360610952E+05
 cg2d: Sum(rhs),rhsMax =  -7.25594071138280E+01  1.21293000041786E+00
(PID.TID 0000.0001)  ploadbar=  1.01031232216066E+05
 cg2d: Sum(rhs),rhsMax =  -7.23201798867657E+01  1.21620137419235E+00
(PID.TID 0000.0001)  ploadbar=  1.01030705536192E+05
 cg2d: Sum(rhs),rhsMax =  -7.20868533478602E+01  1.21945597327370E+00
(PID.TID 0000.0001)  ploadbar=  1.01030178856319E+05
 cg2d: Sum(rhs),rhsMax =  -7.18559327391837E+01  1.22275103349774E+00
(PID.TID 0000.0001)  ploadbar=  1.01029652176445E+05
 cg2d: Sum(rhs),rhsMax =  -7.16317891270724E+01  1.22600619834276E+00
(PID.TID 0000.0001)  ploadbar=  1.01029125496571E+05
 cg2d: Sum(rhs),rhsMax =  -7.14146774081613E+01  1.22921040717143E+00
(PID.TID 0000.0001)  ploadbar=  1.01028598816697E+05
 cg2d: Sum(rhs),rhsMax =  -7.12039180338852E+01  1.23237151815886E+00
(PID.TID 0000.0001)  ploadbar=  1.01028072136824E+05
 cg2d: Sum(rhs),rhsMax =  -7.10035423528914E+01  1.23536974387989E+00
(PID.TID 0000.0001)  ploadbar=  1.01027692275503E+05
 cg2d: Sum(rhs),rhsMax =  -7.08137999525688E+01  1.23819414330862E+00
(PID.TID 0000.0001)  ploadbar=  1.01027312414182E+05
 cg2d: Sum(rhs),rhsMax =  -7.06270069544079E+01  1.24096927173933E+00
(PID.TID 0000.0001)  ploadbar=  1.01026932552861E+05
 cg2d: Sum(rhs),rhsMax =  -7.04425901229584E+01  1.24370089758836E+00
(PID.TID 0000.0001)  ploadbar=  1.01026552691540E+05
 cg2d: Sum(rhs),rhsMax =  -7.02628183448173E+01  1.24634250165547E+00
(PID.TID 0000.0001)  ploadbar=  1.01026172830219E+05
 cg2d: Sum(rhs),rhsMax =  -7.00868824790692E+01  1.24889992886846E+00
(PID.TID 0000.0001)  ploadbar=  1.01025792968898E+05
 cg2d: Sum(rhs),rhsMax =  -6.99012289725116E+01  1.25165449985860E+00
(PID.TID 0000.0001)  ploadbar=  1.01024552631051E+05
 cg2d: Sum(rhs),rhsMax =  -6.97178384826429E+01  1.25438947603563E+00
(PID.TID 0000.0001)  ploadbar=  1.01023312293204E+05
 cg2d: Sum(rhs),rhsMax =  -6.95399516639309E+01  1.25703917041860E+00
(PID.TID 0000.0001)  ploadbar=  1.01022071955357E+05
 cg2d: Sum(rhs),rhsMax =  -6.93631868926107E+01  1.25967716121386E+00
(PID.TID 0000.0001)  ploadbar=  1.01020831617509E+05
 cg2d: Sum(rhs),rhsMax =  -6.91880957551193E+01  1.26229004801554E+00
(PID.TID 0000.0001)  ploadbar=  1.01019591279662E+05
 cg2d: Sum(rhs),rhsMax =  -6.90139234326820E+01  1.26488629379956E+00
(PID.TID 0000.0001)  ploadbar=  1.01018350941815E+05
 cg2d: Sum(rhs),rhsMax =  -6.88468637034533E+01  1.26735456552697E+00
(PID.TID 0000.0001)  ploadbar=  1.01018751714842E+05
 cg2d: Sum(rhs),rhsMax =  -6.86821847920088E+01  1.26977573420478E+00
(PID.TID 0000.0001)  ploadbar=  1.01019152487870E+05
 cg2d: Sum(rhs),rhsMax =  -6.85195956861312E+01  1.27214997246026E+00
(PID.TID 0000.0001)  ploadbar=  1.01019553260897E+05
 cg2d: Sum(rhs),rhsMax =  -6.83571679500913E+01  1.27450381365086E+00
(PID.TID 0000.0001)  ploadbar=  1.01019954033924E+05
 cg2d: Sum(rhs),rhsMax =  -6.81942850343048E+01  1.27684343679767E+00
(PID.TID 0000.0001)  ploadbar=  1.01020354806951E+05
 cg2d: Sum(rhs),rhsMax =  -6.80303478903285E+01  1.27917449713474E+00
(PID.TID 0000.0001)  ploadbar=  1.01020755579978E+05
 cg2d: Sum(rhs),rhsMax =  -6.77966126109439E+01  1.28290470239870E+00
(PID.TID 0000.0001)  ploadbar=  1.01019510264387E+05
 cg2d: Sum(rhs),rhsMax =  -6.68338957115803E+01  1.30076109418031E+00
(PID.TID 0000.0001)  ploadbar=  1.01018264948796E+05
 cg2d: Sum(rhs),rhsMax =  -6.55671233964939E+01  1.32531858173292E+00
(PID.TID 0000.0001)  ploadbar=  1.01017019633205E+05
 cg2d: Sum(rhs),rhsMax =  -6.40987036248386E+01  1.35514911054818E+00
(PID.TID 0000.0001)  ploadbar=  1.01015774317614E+05
 cg2d: Sum(rhs),rhsMax =  -6.25830380557774E+01  1.38747915008311E+00
(PID.TID 0000.0001)  ploadbar=  1.01014529002023E+05
 cg2d: Sum(rhs),rhsMax =  -6.10346626268417E+01  1.42222078873694E+00
(PID.TID 0000.0001)  ploadbar=  1.01013283686432E+05
 cg2d: Sum(rhs),rhsMax =  -5.97505070264383E+01  1.45230060959513E+00
(PID.TID 0000.0001)  ploadbar=  1.01011703777050E+05
 cg2d: Sum(rhs),rhsMax =  -5.86987968389981E+01  1.47780465625010E+00
(PID.TID 0000.0001)  ploadbar=  1.01010123867667E+05
 cg2d: Sum(rhs),rhsMax =  -5.77278346001248E+01  1.50211466371402E+00
(PID.TID 0000.0001)  ploadbar=  1.01008543958284E+05
 cg2d: Sum(rhs),rhsMax =  -5.62917160232405E+01  1.53985051221668E+00
(PID.TID 0000.0001)  ploadbar=  1.01006964048902E+05
 cg2d: Sum(rhs),rhsMax =  -5.51385391410130E+01  1.57143044612064E+00
(PID.TID 0000.0001)  ploadbar=  1.01005384139519E+05
 cg2d: Sum(rhs),rhsMax =  -5.42587492491874E+01  1.59624281194156E+00
(PID.TID 0000.0001)  ploadbar=  1.01003804230136E+05
 cg2d: Sum(rhs),rhsMax =  -5.35683137549563E+01  1.61613483502499E+00
(PID.TID 0000.0001)  ploadbar=  1.01001571121170E+05
 cg2d: Sum(rhs),rhsMax =  -5.30452271016136E+01  1.63137109481371E+00
(PID.TID 0000.0001)  ploadbar=  1.00999338012204E+05
 cg2d: Sum(rhs),rhsMax =  -5.26645132507871E+01  1.64243748964330E+00
(PID.TID 0000.0001)  ploadbar=  1.00997104903238E+05
 cg2d: Sum(rhs),rhsMax =  -5.24052344959113E+01  1.64980452695852E+00
(PID.TID 0000.0001)  ploadbar=  1.00994871794272E+05
 cg2d: Sum(rhs),rhsMax =  -5.22427268520659E+01  1.65413852272210E+00
(PID.TID 0000.0001)  ploadbar=  1.00992638685306E+05
 cg2d: Sum(rhs),rhsMax =  -5.21468964044453E+01  1.65633466314663E+00
(PID.TID 0000.0001)  ploadbar=  1.00990405576339E+05
 cg2d: Sum(rhs),rhsMax =  -5.20514018054854E+01  1.65850943850220E+00
(PID.TID 0000.0001)  ploadbar=  1.00989598455810E+05
 cg2d: Sum(rhs),rhsMax =  -5.16551508346156E+01  1.67034017403698E+00
(PID.TID 0000.0001)  ploadbar=  1.00988791335281E+05
 cg2d: Sum(rhs),rhsMax =  -5.07427778703545E+01  1.69943436796636E+00
(PID.TID 0000.0001)  ploadbar=  1.00987984214752E+05
 cg2d: Sum(rhs),rhsMax =  -5.00198219678158E+01  1.72300483602020E+00
(PID.TID 0000.0001)  ploadbar=  1.00987177094222E+05
 cg2d: Sum(rhs),rhsMax =  -4.95222859938676E+01  1.73926893173306E+00
(PID.TID 0000.0001)  ploadbar=  1.00986369973693E+05
 cg2d: Sum(rhs),rhsMax =  -4.92181049098498E+01  1.74891046587340E+00
(PID.TID 0000.0001)  ploadbar=  1.00985562853164E+05
 cg2d: Sum(rhs),rhsMax =  -4.89556801543544E+01  1.75726307605425E+00
(PID.TID 0000.0001)  ploadbar=  1.00985926816625E+05
 cg2d: Sum(rhs),rhsMax =  -4.87932851334279E+01  1.76217454249192E+00
(PID.TID 0000.0001)  ploadbar=  1.00986290780086E+05
 cg2d: Sum(rhs),rhsMax =  -4.86995553540375E+01  1.76470945150242E+00
(PID.TID 0000.0001)  ploadbar=  1.00986654743547E+05
 cg2d: Sum(rhs),rhsMax =  -4.86582910444654E+01  1.76542388472397E+00
(PID.TID 0000.0001)  ploadbar=  1.00987018707008E+05
 cg2d: Sum(rhs),rhsMax =  -4.86640246833899E+01  1.76450433871323E+00
(PID.TID 0000.0001)  ploadbar=  1.00987382670468E+05
 cg2d: Sum(rhs),rhsMax =  -4.87190746288886E+01  1.76186511381991E+00
(PID.TID 0000.0001)  ploadbar=  1.00987746633929E+05
 cg2d: Sum(rhs),rhsMax =  -4.88023152759047E+01  1.75820052320400E+00
(PID.TID 0000.0001)  ploadbar=  1.00988892783922E+05
 cg2d: Sum(rhs),rhsMax =  -4.88863345550729E+01  1.75449704374274E+00
(PID.TID 0000.0001)  ploadbar=  1.00990038933915E+05
 cg2d: Sum(rhs),rhsMax =  -4.89893662260371E+01  1.75009645839947E+00
(PID.TID 0000.0001)  ploadbar=  1.00991185083907E+05
 cg2d: Sum(rhs),rhsMax =  -4.95325791053886E+01  1.73016669186389E+00
(PID.TID 0000.0001)  ploadbar=  1.00992331233900E+05
 cg2d: Sum(rhs),rhsMax =  -5.01315009773388E+01  1.70872922195761E+00
(PID.TID 0000.0001)  ploadbar=  1.00993477383892E+05
 cg2d: Sum(rhs),rhsMax =  -5.07882168640635E+01  1.68583718004076E+00
(PID.TID 0000.0001)  ploadbar=  1.00994623533885E+05
 cg2d: Sum(rhs),rhsMax =  -5.15480564388046E+01  1.66021597959449E+00
(PID.TID 0000.0001)  ploadbar=  1.00994863360263E+05
 cg2d: Sum(rhs),rhsMax =  -5.21928761864454E+01  1.63895076793507E+00
(PID.TID 0000.0001)  ploadbar=  1.00995103186641E+05
 cg2d: Sum(rhs),rhsMax =  -5.21290603204246E+01  1.64020769490289E+00
(PID.TID 0000.0001)  ploadbar=  1.00995343013020E+05
 cg2d: Sum(rhs),rhsMax =  -5.20895370582039E+01  1.64070058927115E+00
(PID.TID 0000.0001)  ploadbar=  1.00995582839398E+05
 cg2d: Sum(rhs),rhsMax =  -5.20862730446305E+01  1.64004439610318E+00
(PID.TID 0000.0001)  ploadbar=  1.00995822665776E+05
 cg2d: Sum(rhs),rhsMax =  -5.21141608475413E+01  1.63839293041646E+00
(PID.TID 0000.0001)  ploadbar=  1.00996062492154E+05
 cg2d: Sum(rhs),rhsMax =  -5.22609433697378E+01  1.63298619984969E+00
(PID.TID 0000.0001)  ploadbar=  1.00996889994310E+05
 cg2d: Sum(rhs),rhsMax =  -5.25223343090103E+01  1.62401604041260E+00
(PID.TID 0000.0001)  ploadbar=  1.00997717496466E+05
 cg2d: Sum(rhs),rhsMax =  -5.28861981845333E+01  1.61195628906669E+00
(PID.TID 0000.0001)  ploadbar=  1.00998544998621E+05
 cg2d: Sum(rhs),rhsMax =  -5.32599150428009E+01  1.59970585638917E+00
(PID.TID 0000.0001)  ploadbar=  1.00999372500777E+05
 cg2d: Sum(rhs),rhsMax =  -5.36481507101945E+01  1.58712852674647E+00
(PID.TID 0000.0001)  ploadbar=  1.01000200002933E+05
 cg2d: Sum(rhs),rhsMax =  -5.40838836283860E+01  1.57327554238260E+00
(PID.TID 0000.0001)  ploadbar=  1.01001027505089E+05
 cg2d: Sum(rhs),rhsMax =  -5.47496680900234E+01  1.55318146476119E+00
(PID.TID 0000.0001)  ploadbar=  1.01002946391343E+05
 cg2d: Sum(rhs),rhsMax =  -5.56424274055528E+01  1.52740425187785E+00
(PID.TID 0000.0001)  ploadbar=  1.01004865277598E+05
 cg2d: Sum(rhs),rhsMax =  -5.67651389028220E+01  1.49643842319100E+00
(PID.TID 0000.0001)  ploadbar=  1.01006784163853E+05
 cg2d: Sum(rhs),rhsMax =  -5.81335162112789E+01  1.46055392788401E+00
(PID.TID 0000.0001)  ploadbar=  1.01008703050108E+05
 cg2d: Sum(rhs),rhsMax =  -5.97476610739140E+01  1.42052523689592E+00
(PID.TID 0000.0001)  ploadbar=  1.01010621936362E+05
 cg2d: Sum(rhs),rhsMax =  -6.16088508071988E+01  1.37712034652378E+00
(PID.TID 0000.0001)  ploadbar=  1.01012540822617E+05
 cg2d: Sum(rhs),rhsMax =  -6.32989361851368E+01  1.33985508043459E+00
(PID.TID 0000.0001)  ploadbar=  1.01013324178109E+05
 cg2d: Sum(rhs),rhsMax =  -6.48706719268073E+01  1.30688550825201E+00
(PID.TID 0000.0001)  ploadbar=  1.01014107533602E+05
 cg2d: Sum(rhs),rhsMax =  -6.62962990349795E+01  1.27826186899506E+00
(PID.TID 0000.0001)  ploadbar=  1.01014890889094E+05
 cg2d: Sum(rhs),rhsMax =  -6.76216559138873E+01  1.25266873959631E+00
(PID.TID 0000.0001)  ploadbar=  1.01015674244586E+05
 cg2d: Sum(rhs),rhsMax =  -6.89892586138476E+01  1.22727603123031E+00
(PID.TID 0000.0001)  ploadbar=  1.01016457600079E+05
 cg2d: Sum(rhs),rhsMax =  -6.94361088245984E+01  1.21878682906368E+00
(PID.TID 0000.0001)  ploadbar=  1.01017240955571E+05
 cg2d: Sum(rhs),rhsMax =  -6.94071989651698E+01  1.21871916566315E+00
(PID.TID 0000.0001)  ploadbar=  1.01017399538700E+05
 cg2d: Sum(rhs),rhsMax =  -6.92986856388371E+01  1.22006760649933E+00
(PID.TID 0000.0001)  ploadbar=  1.01017558121830E+05
 cg2d: Sum(rhs),rhsMax =  -6.91177172201905E+01  1.22271352643933E+00
(PID.TID 0000.0001)  ploadbar=  1.01017716704960E+05
 cg2d: Sum(rhs),rhsMax =  -6.89126159873531E+01  1.22581073540599E+00
(PID.TID 0000.0001)  ploadbar=  1.01017875288089E+05
 cg2d: Sum(rhs),rhsMax =  -6.88465581229960E+01  1.22645117666163E+00
(PID.TID 0000.0001)  ploadbar=  1.01018033871219E+05
 cg2d: Sum(rhs),rhsMax =  -6.90949707595638E+01  1.22151240279666E+00
(PID.TID 0000.0001)  ploadbar=  1.01018192454348E+05
 cg2d: Sum(rhs),rhsMax =  -6.97764528460881E+01  1.20906465616946E+00
(PID.TID 0000.0001)  ploadbar=  1.01018855723494E+05
 cg2d: Sum(rhs),rhsMax =  -7.06801024434776E+01  1.19309652002830E+00
(PID.TID 0000.0001)  ploadbar=  1.01019518992639E+05
 cg2d: Sum(rhs),rhsMax =  -7.16247877179539E+01  1.17685147762257E+00
(PID.TID 0000.0001)  ploadbar=  1.01020182261785E+05
 cg2d: Sum(rhs),rhsMax =  -7.24337490207526E+01  1.16319249845375E+00
(PID.TID 0000.0001)  ploadbar=  1.01020845530930E+05
 cg2d: Sum(rhs),rhsMax =  -7.31818758813993E+01  1.15077580683873E+00
(PID.TID 0000.0001)  ploadbar=  1.01021508800076E+05
 cg2d: Sum(rhs),rhsMax =  -7.39378581421013E+01  1.13847176260970E+00
(PID.TID 0000.0001)  ploadbar=  1.01022172069222E+05
 cg2d: Sum(rhs),rhsMax =  -7.47452580320981E+01  1.12568304081163E+00
(PID.TID 0000.0001)  ploadbar=  1.01021569659015E+05
 cg2d: Sum(rhs),rhsMax =  -7.55659287476060E+01  1.11301071518743E+00
(PID.TID 0000.0001)  ploadbar=  1.01020967248808E+05
 cg2d: Sum(rhs),rhsMax =  -7.63806422175185E+01  1.10073074765646E+00
(PID.TID 0000.0001)  ploadbar=  1.01020364838602E+05
 cg2d: Sum(rhs),rhsMax =  -7.71861890992180E+01  1.08887075849571E+00
(PID.TID 0000.0001)  ploadbar=  1.01019762428395E+05
 cg2d: Sum(rhs),rhsMax =  -7.79485704845324E+01  1.07788141436643E+00
(PID.TID 0000.0001)  ploadbar=  1.01019160018188E+05
 cg2d: Sum(rhs),rhsMax =  -7.85635306894342E+01  1.06913217088659E+00
(PID.TID 0000.0001)  ploadbar=  1.01018557607981E+05
 cg2d: Sum(rhs),rhsMax =  -7.80816942266557E+01  1.07541233752518E+00
(PID.TID 0000.0001)  ploadbar=  1.01018327185611E+05
 cg2d: Sum(rhs),rhsMax =  -7.75900763447351E+01  1.08190070321024E+00
(PID.TID 0000.0001)  ploadbar=  1.01018096763241E+05
 cg2d: Sum(rhs),rhsMax =  -7.71084694516314E+01  1.08832179242606E+00
(PID.TID 0000.0001)  ploadbar=  1.01017866340871E+05
 cg2d: Sum(rhs),rhsMax =  -7.66522531790644E+01  1.09444938779558E+00
(PID.TID 0000.0001)  ploadbar=  1.01017635918501E+05
 cg2d: Sum(rhs),rhsMax =  -7.62278162379264E+01  1.10017548652652E+00
(PID.TID 0000.0001)  ploadbar=  1.01017405496131E+05
 cg2d: Sum(rhs),rhsMax =  -7.58379145834683E+01  1.10544098192479E+00
(PID.TID 0000.0001)  ploadbar=  1.01017175073761E+05
 cg2d: Sum(rhs),rhsMax =  -7.54966585400483E+01  1.11008279559064E+00
(PID.TID 0000.0001)  ploadbar=  1.01016921467923E+05
 cg2d: Sum(rhs),rhsMax =  -7.51916461655113E+01  1.11426128531795E+00
(PID.TID 0000.0001)  ploadbar=  1.01016667862085E+05
 cg2d: Sum(rhs),rhsMax =  -7.49131353632778E+01  1.11810404423194E+00
(PID.TID 0000.0001)  ploadbar=  1.01016414256248E+05
 cg2d: Sum(rhs),rhsMax =  -7.46559118312513E+01  1.12167716813335E+00
(PID.TID 0000.0001)  ploadbar=  1.01016160650410E+05
 cg2d: Sum(rhs),rhsMax =  -7.44124035173345E+01  1.12508677247580E+00
(PID.TID 0000.0001)  ploadbar=  1.01015907044572E+05
 cg2d: Sum(rhs),rhsMax =  -7.41798163974263E+01  1.12836866108429E+00
(PID.TID 0000.0001)  ploadbar=  1.01015653438734E+05
 cg2d: Sum(rhs),rhsMax =  -7.39668007650530E+01  1.13134572518830E+00
(PID.TID 0000.0001)  ploadbar=  1.01015340709851E+05
 cg2d: Sum(rhs),rhsMax =  -7.37732661532933E+01  1.13400963944721E+00
(PID.TID 0000.0001)  ploadbar=  1.01015027980967E+05
 cg2d: Sum(rhs),rhsMax =  -7.36055400897762E+01  1.13625373475118E+00
(PID.TID 0000.0001)  ploadbar=  1.01014715252083E+05
 cg2d: Sum(rhs),rhsMax =  -7.34652950623686E+01  1.13804181152614E+00
(PID.TID 0000.0001)  ploadbar=  1.01014402523199E+05
 cg2d: Sum(rhs),rhsMax =  -7.33477111698897E+01  1.13943678860119E+00
(PID.TID 0000.0001)  ploadbar=  1.01014089794315E+05
 cg2d: Sum(rhs),rhsMax =  -7.32577006176066E+01  1.14035619300636E+00
(PID.TID 0000.0001)  ploadbar=  1.01013777065432E+05
 cg2d: Sum(rhs),rhsMax =  -7.32067508392508E+01  1.14071390039314E+00
(PID.TID 0000.0001)  ploadbar=  1.01011683268199E+05
 cg2d: Sum(rhs),rhsMax =  -7.31876446621885E+01  1.14061725291959E+00
(PID.TID 0000.0001)  ploadbar=  1.01009589470967E+05
 cg2d: Sum(rhs),rhsMax =  -7.31999162020949E+01  1.14006861593691E+00
(PID.TID 0000.0001)  ploadbar=  1.01007495673734E+05
 cg2d: Sum(rhs),rhsMax =  -7.32416764513940E+01  1.13909519390005E+00
(PID.TID 0000.0001)  ploadbar=  1.01005401876502E+05
 cg2d: Sum(rhs),rhsMax =  -7.33066308582305E+01  1.13779542370793E+00
(PID.TID 0000.0001)  ploadbar=  1.01003308079269E+05
 cg2d: Sum(rhs),rhsMax =  -7.33967993367127E+01  1.13613846917939E+00
(PID.TID 0000.0001)  ploadbar=  1.01001214282037E+05
 cg2d: Sum(rhs),rhsMax =  -7.34992569718718E+01  1.13428724586959E+00
(PID.TID 0000.0001)  ploadbar=  1.01000538071634E+05
 cg2d: Sum(rhs),rhsMax =  -7.36259879550353E+01  1.13205694597759E+00
(PID.TID 0000.0001)  ploadbar=  1.00999861861231E+05
 cg2d: Sum(rhs),rhsMax =  -7.37840154126564E+01  1.12934212031883E+00
(PID.TID 0000.0001)  ploadbar=  1.00999185650828E+05
 cg2d: Sum(rhs),rhsMax =  -7.39799017734865E+01  1.12604455497473E+00
(PID.TID 0000.0001)  ploadbar=  1.00998509440425E+05
 cg2d: Sum(rhs),rhsMax =  -7.42248216486636E+01  1.12199969827484E+00
(PID.TID 0000.0001)  ploadbar=  1.00997833230022E+05
 cg2d: Sum(rhs),rhsMax =  -7.45391734506564E+01  1.11691302448329E+00
(PID.TID 0000.0001)  ploadbar=  1.00997157019619E+05
 cg2d: Sum(rhs),rhsMax =  -7.49367148630199E+01  1.11066360045696E+00
(PID.TID 0000.0001)  ploadbar=  1.00997155143458E+05
 cg2d: Sum(rhs),rhsMax =  -7.54139690745962E+01  1.10333875853869E+00
(PID.TID 0000.0001)  ploadbar=  1.00997153267296E+05
 cg2d: Sum(rhs),rhsMax =  -7.59774729260664E+01  1.09488370017423E+00
(PID.TID 0000.0001)  ploadbar=  1.00997151391135E+05
 cg2d: Sum(rhs),rhsMax =  -7.66354113866560E+01  1.08523493844186E+00
(PID.TID 0000.0001)  ploadbar=  1.00997149514974E+05
 cg2d: Sum(rhs),rhsMax =  -7.73930770108140E+01  1.07438257727184E+00
(PID.TID 0000.0001)  ploadbar=  1.00997147638813E+05
 cg2d: Sum(rhs),rhsMax =  -7.82514314091153E+01  1.06238644598730E+00
(PID.TID 0000.0001)  ploadbar=  1.00997145762652E+05
 cg2d: Sum(rhs),rhsMax =  -7.91425241420575E+01  1.05020667517557E+00
(PID.TID 0000.0001)  ploadbar=  1.00996845375735E+05
 cg2d: Sum(rhs),rhsMax =  -8.00432627892713E+01  1.03815854825085E+00
(PID.TID 0000.0001)  ploadbar=  1.00996544988818E+05
 cg2d: Sum(rhs),rhsMax =  -8.09505483010051E+01  1.02627713456687E+00
(PID.TID 0000.0001)  ploadbar=  1.00996244601901E+05
 cg2d: Sum(rhs),rhsMax =  -8.18764594205078E+01  1.01440734282098E+00
(PID.TID 0000.0001)  ploadbar=  1.00995944214983E+05
 cg2d: Sum(rhs),rhsMax =  -8.28371846520285E+01  1.00235773515825E+00
(PID.TID 0000.0001)  ploadbar=  1.00995643828066E+05
 cg2d: Sum(rhs),rhsMax =  -8.38719860151406E+01  9.89683268838320E-01
(PID.TID 0000.0001)  ploadbar=  1.00995343441149E+05
 cg2d: Sum(rhs),rhsMax =  -8.49535939071168E+01  9.76807550884220E-01
(PID.TID 0000.0001)  ploadbar=  1.00995726503369E+05
 cg2d: Sum(rhs),rhsMax =  -8.39234975495143E+01  9.88544984195498E-01
(PID.TID 0000.0001)  ploadbar=  1.00996109565589E+05
 cg2d: Sum(rhs),rhsMax =  -8.27201265612663E+01  1.00269339972570E+00
(PID.TID 0000.0001)  ploadbar=  1.00996492627809E+05
 cg2d: Sum(rhs),rhsMax =  -8.15907696570370E+01  1.01635655019691E+00
(PID.TID 0000.0001)  ploadbar=  1.00996875690029E+05
 cg2d: Sum(rhs),rhsMax =  -8.06084615393092E+01  1.02854126875902E+00
(PID.TID 0000.0001)  ploadbar=  1.00997258752249E+05
 cg2d: Sum(rhs),rhsMax =  -7.98097494530683E+01  1.03864709000751E+00
(PID.TID 0000.0001)  ploadbar=  1.00997641814469E+05
 cg2d: Sum(rhs),rhsMax =  -7.91131261290312E+01  1.04759584805660E+00
(PID.TID 0000.0001)  ploadbar=  1.00998827148374E+05
 cg2d: Sum(rhs),rhsMax =  -7.85478811629492E+01  1.05492552136899E+00
(PID.TID 0000.0001)  ploadbar=  1.01000012482280E+05
 cg2d: Sum(rhs),rhsMax =  -7.80901789668430E+01  1.06088502570588E+00
(PID.TID 0000.0001)  ploadbar=  1.01001197816185E+05
 cg2d: Sum(rhs),rhsMax =  -7.75698318190629E+01  1.06775982480400E+00
(PID.TID 0000.0001)  ploadbar=  1.01002383150090E+05
 cg2d: Sum(rhs),rhsMax =  -7.69581435367977E+01  1.07598117536593E+00
(PID.TID 0000.0001)  ploadbar=  1.01003568483995E+05
 cg2d: Sum(rhs),rhsMax =  -7.62267513846427E+01  1.08601258361752E+00
(PID.TID 0000.0001)  ploadbar=  1.01004753817900E+05
 cg2d: Sum(rhs),rhsMax =  -7.53771636492482E+01  1.09796516819309E+00
(PID.TID 0000.0001)  ploadbar=  1.01006616038320E+05
 cg2d: Sum(rhs),rhsMax =  -7.44885808099004E+01  1.11077548788805E+00
(PID.TID 0000.0001)  ploadbar=  1.01008478258739E+05
 cg2d: Sum(rhs),rhsMax =  -7.35466056698659E+01  1.12470988683261E+00
(PID.TID 0000.0001)  ploadbar=  1.01010340479159E+05
 cg2d: Sum(rhs),rhsMax =  -7.25563941323729E+01  1.13975571638184E+00
(PID.TID 0000.0001)  ploadbar=  1.01012202699579E+05
 cg2d: Sum(rhs),rhsMax =  -7.15249783968825E+01  1.15587153564435E+00
(PID.TID 0000.0001)  ploadbar=  1.01014064919998E+05
 cg2d: Sum(rhs),rhsMax =  -7.04678325851551E+01  1.17287062838244E+00
(PID.TID 0000.0001)  ploadbar=  1.01015927140418E+05
 cg2d: Sum(rhs),rhsMax =  -6.94435028743328E+01  1.18980551907931E+00
(PID.TID 0000.0001)  ploadbar=  1.01017762508075E+05
 cg2d: Sum(rhs),rhsMax =  -6.84012805701905E+01  1.20753713689472E+00
(PID.TID 0000.0001)  ploadbar=  1.01019597875732E+05
 cg2d: Sum(rhs),rhsMax =  -6.73880336461000E+01  1.22525963475233E+00
(PID.TID 0000.0001)  ploadbar=  1.01021433243390E+05
 cg2d: Sum(rhs),rhsMax =  -6.64273696862936E+01  1.24250312760246E+00
(PID.TID 0000.0001)  ploadbar=  1.01023268611047E+05
 cg2d: Sum(rhs),rhsMax =  -6.55268366758254E+01  1.25905410048966E+00
(PID.TID 0000.0001)  ploadbar=  1.01025103978704E+05
 cg2d: Sum(rhs),rhsMax =  -6.46912773096524E+01  1.27473413182320E+00
(PID.TID 0000.0001)  ploadbar=  1.01026939346362E+05
 cg2d: Sum(rhs),rhsMax =  -6.40318256327107E+01  1.28732631777947E+00
(PID.TID 0000.0001)  ploadbar=  1.01028068267612E+05
 cg2d: Sum(rhs),rhsMax =  -6.34897886530591E+01  1.29782251738248E+00
(PID.TID 0000.0001)  ploadbar=  1.01029197188862E+05
 cg2d: Sum(rhs),rhsMax =  -6.30792265255763E+01  1.30581413322178E+00
(PID.TID 0000.0001)  ploadbar=  1.01030326110112E+05
 cg2d: Sum(rhs),rhsMax =  -6.27931853366418E+01  1.31134262812115E+00
(PID.TID 0000.0001)  ploadbar=  1.01031455031362E+05
 cg2d: Sum(rhs),rhsMax =  -6.26276491132034E+01  1.31442071572157E+00
(PID.TID 0000.0001)  ploadbar=  1.01032583952612E+05
 cg2d: Sum(rhs),rhsMax =  -6.25617689619172E+01  1.31544604973381E+00
(PID.TID 0000.0001)  ploadbar=  1.01033712873863E+05
 cg2d: Sum(rhs),rhsMax =  -6.25049515082292E+01  1.31629027562292E+00
(PID.TID 0000.0001)  ploadbar=  1.01034358757839E+05
 cg2d: Sum(rhs),rhsMax =  -6.24414856367392E+01  1.31727985897424E+00
(PID.TID 0000.0001)  ploadbar=  1.01035004641816E+05
 cg2d: Sum(rhs),rhsMax =  -6.23757663842894E+01  1.31831612485083E+00
(PID.TID 0000.0001)  ploadbar=  1.01035650525793E+05
 cg2d: Sum(rhs),rhsMax =  -6.23269708111686E+01  1.31898762433003E+00
(PID.TID 0000.0001)  ploadbar=  1.01036296409769E+05
 cg2d: Sum(rhs),rhsMax =  -6.23090874657427E+01  1.31898398182596E+00
(PID.TID 0000.0001)  ploadbar=  1.01036942293746E+05
 cg2d: Sum(rhs),rhsMax =  -6.23290452043322E+01  1.31815463022059E+00
(PID.TID 0000.0001)  ploadbar=  1.01037588177723E+05
 cg2d: Sum(rhs),rhsMax =  -6.24260745433432E+01  1.31570505419233E+00
(PID.TID 0000.0001)  ploadbar=  1.01038245893567E+05
 cg2d: Sum(rhs),rhsMax =  -6.25550093389305E+01  1.31259702941731E+00
(PID.TID 0000.0001)  ploadbar=  1.01038903609412E+05
 cg2d: Sum(rhs),rhsMax =  -6.27093378371474E+01  1.30897290944635E+00
(PID.TID 0000.0001)  ploadbar=  1.01039561325256E+05
 cg2d: Sum(rhs),rhsMax =  -6.28816601889613E+01  1.30498807869496E+00
(PID.TID 0000.0001)  ploadbar=  1.01040219041101E+05
 cg2d: Sum(rhs),rhsMax =  -6.30649142226537E+01  1.30078901667720E+00
(PID.TID 0000.0001)  ploadbar=  1.01040876756945E+05
 cg2d: Sum(rhs),rhsMax =  -6.32562270197599E+01  1.29643284371763E+00
(PID.TID 0000.0001)  ploadbar=  1.01041534472790E+05
 cg2d: Sum(rhs),rhsMax =  -6.34273870528178E+01  1.29250115646611E+00
(PID.TID 0000.0001)  ploadbar=  1.01042956337956E+05
 cg2d: Sum(rhs),rhsMax =  -6.35777001902907E+01  1.28899814908379E+00
(PID.TID 0000.0001)  ploadbar=  1.01044378203122E+05
 cg2d: Sum(rhs),rhsMax =  -6.36975523972180E+01  1.28610748838341E+00
(PID.TID 0000.0001)  ploadbar=  1.01045800068289E+05
 cg2d: Sum(rhs),rhsMax =  -6.37991019808697E+01  1.28357065554700E+00
(PID.TID 0000.0001)  ploadbar=  1.01047221933455E+05
 cg2d: Sum(rhs),rhsMax =  -6.38872973076967E+01  1.28127727716949E+00
(PID.TID 0000.0001)  ploadbar=  1.01048643798621E+05
 cg2d: Sum(rhs),rhsMax =  -6.39647621781670E+01  1.27916770180325E+00
(PID.TID 0000.0001)  ploadbar=  1.01050065663787E+05
 cg2d: Sum(rhs),rhsMax =  -6.40266545706359E+01  1.27746580604626E+00
(PID.TID 0000.0001)  ploadbar=  1.01050872219983E+05
 cg2d: Sum(rhs),rhsMax =  -6.41471523164492E+01  1.27468663331778E+00
(PID.TID 0000.0001)  ploadbar=  1.01051678776178E+05
 cg2d: Sum(rhs),rhsMax =  -6.42910026934508E+01  1.27153366728632E+00
(PID.TID 0000.0001)  ploadbar=  1.01052485332374E+05
 cg2d: Sum(rhs),rhsMax =  -6.44430651373420E+01  1.26830457208310E+00
(PID.TID 0000.0001)  ploadbar=  1.01053291888569E+05
 cg2d: Sum(rhs),rhsMax =  -6.45926529262792E+01  1.26520410156773E+00
(PID.TID 0000.0001)  ploadbar=  1.01054098444765E+05
 cg2d: Sum(rhs),rhsMax =  -6.47267383608578E+01  1.26248055289684E+00
(PID.TID 0000.0001)  ploadbar=  1.01054905000960E+05
 cg2d: Sum(rhs),rhsMax =  -6.48148087179714E+01  1.26060664740516E+00
(PID.TID 0000.0001)  ploadbar=  1.01055142205803E+05
 cg2d: Sum(rhs),rhsMax =  -6.49106368663072E+01  1.25852385775039E+00
(PID.TID 0000.0001)  ploadbar=  1.01055379410646E+05
 cg2d: Sum(rhs),rhsMax =  -6.49997790631806E+01  1.25651013233788E+00
(PID.TID 0000.0001)  ploadbar=  1.01055616615489E+05
 cg2d: Sum(rhs),rhsMax =  -6.51093320827135E+01  1.25403871702730E+00
(PID.TID 0000.0001)  ploadbar=  1.01055853820332E+05
 cg2d: Sum(rhs),rhsMax =  -6.52775987946893E+01  1.25037416062157E+00
(PID.TID 0000.0001)  ploadbar=  1.01056091025175E+05
 cg2d: Sum(rhs),rhsMax =  -6.55272489416613E+01  1.24510171857902E+00
(PID.TID 0000.0001)  ploadbar=  1.01056328230017E+05
 cg2d: Sum(rhs),rhsMax =  -6.57967294082263E+01  1.23952014997210E+00
(PID.TID 0000.0001)  ploadbar=  1.01056934558393E+05
 cg2d: Sum(rhs),rhsMax =  -6.61391810090422E+01  1.23264438273046E+00
(PID.TID 0000.0001)  ploadbar=  1.01057540886769E+05
 cg2d: Sum(rhs),rhsMax =  -6.65771686508474E+01  1.22409821430884E+00
(PID.TID 0000.0001)  ploadbar=  1.01058147215144E+05
 cg2d: Sum(rhs),rhsMax =  -6.71066922098114E+01  1.21401856587167E+00
(PID.TID 0000.0001)  ploadbar=  1.01058753543519E+05
 cg2d: Sum(rhs),rhsMax =  -6.77455625527236E+01  1.20216455655683E+00
(PID.TID 0000.0001)  ploadbar=  1.01059359871895E+05
 cg2d: Sum(rhs),rhsMax =  -6.85196378739067E+01  1.18818994816966E+00
(PID.TID 0000.0001)  ploadbar=  1.01059966200270E+05
 cg2d: Sum(rhs),rhsMax =  -6.94594022211217E+01  1.17170155710226E+00
(PID.TID 0000.0001)  ploadbar=  1.01060807202181E+05
 cg2d: Sum(rhs),rhsMax =  -7.04050927840936E+01  1.15552769209334E+00
(PID.TID 0000.0001)  ploadbar=  1.01061648204092E+05
 cg2d: Sum(rhs),rhsMax =  -7.13758590693846E+01  1.13934740075189E+00
(PID.TID 0000.0001)  ploadbar=  1.01062489206003E+05
 cg2d: Sum(rhs),rhsMax =  -7.23254879398136E+01  1.12388804128018E+00
(PID.TID 0000.0001)  ploadbar=  1.01063330207913E+05
 cg2d: Sum(rhs),rhsMax =  -7.32322667700152E+01  1.10943197357291E+00
(PID.TID 0000.0001)  ploadbar=  1.01064171209824E+05
 cg2d: Sum(rhs),rhsMax =  -7.40903426127412E+01  1.09600078718615E+00
(PID.TID 0000.0001)  ploadbar=  1.01065012211735E+05
 cg2d: Sum(rhs),rhsMax =  -7.49326278403309E+01  1.08317292790006E+00
(PID.TID 0000.0001)  ploadbar=  1.01065769459531E+05
 cg2d: Sum(rhs),rhsMax =  -7.57126469585112E+01  1.07157592761073E+00
(PID.TID 0000.0001)  ploadbar=  1.01066526707328E+05
 cg2d: Sum(rhs),rhsMax =  -7.63884788812206E+01  1.06171946524733E+00
(PID.TID 0000.0001)  ploadbar=  1.01067283955124E+05
 cg2d: Sum(rhs),rhsMax =  -7.65685833673567E+01  1.05889825862347E+00
(PID.TID 0000.0001)  ploadbar=  1.01068041202920E+05
 cg2d: Sum(rhs),rhsMax =  -7.60465958012732E+01  1.06588701050660E+00
(PID.TID 0000.0001)  ploadbar=  1.01068798450717E+05
 cg2d: Sum(rhs),rhsMax =  -7.53540082953866E+01  1.07544200242844E+00
(PID.TID 0000.0001)  ploadbar=  1.01069555698513E+05
 cg2d: Sum(rhs),rhsMax =  -7.45895977849815E+01  1.08620296569706E+00
(PID.TID 0000.0001)  ploadbar=  1.01070053604455E+05
 cg2d: Sum(rhs),rhsMax =  -7.38261731938214E+01  1.09715131865302E+00
(PID.TID 0000.0001)  ploadbar=  1.01070551510397E+05
 cg2d: Sum(rhs),rhsMax =  -7.30684622109062E+01  1.10821855052532E+00
(PID.TID 0000.0001)  ploadbar=  1.01071049416339E+05
 cg2d: Sum(rhs),rhsMax =  -7.23207125906952E+01  1.11933637743746E+00
(PID.TID 0000.0001)  ploadbar=  1.01071547322281E+05
 cg2d: Sum(rhs),rhsMax =  -7.14147392125650E+01  1.13316021601683E+00
(PID.TID 0000.0001)  ploadbar=  1.01072045228223E+05
 cg2d: Sum(rhs),rhsMax =  -7.03634918147818E+01  1.14967168802187E+00
(PID.TID 0000.0001)  ploadbar=  1.01072543134166E+05
 cg2d: Sum(rhs),rhsMax =  -6.94754244662994E+01  1.16397783241785E+00
(PID.TID 0000.0001)  ploadbar=  1.01074510121100E+05
 cg2d: Sum(rhs),rhsMax =  -6.86479876914499E+01  1.17764568376467E+00
(PID.TID 0000.0001)  ploadbar=  1.01076477108034E+05
 cg2d: Sum(rhs),rhsMax =  -6.79210159023498E+01  1.18991163906454E+00
(PID.TID 0000.0001)  ploadbar=  1.01078444094969E+05
 cg2d: Sum(rhs),rhsMax =  -6.74009408200778E+01  1.19877832358452E+00
(PID.TID 0000.0001)  ploadbar=  1.01080411081903E+05
 cg2d: Sum(rhs),rhsMax =  -6.70075075241917E+01  1.20551788766395E+00
(PID.TID 0000.0001)  ploadbar=  1.01082378068837E+05
 cg2d: Sum(rhs),rhsMax =  -6.66787380883323E+01  1.21117615436060E+00
(PID.TID 0000.0001)  ploadbar=  1.01084345055772E+05
 cg2d: Sum(rhs),rhsMax =  -6.65099976329212E+01  1.21391960145720E+00
(PID.TID 0000.0001)  ploadbar=  1.01084471041339E+05
 cg2d: Sum(rhs),rhsMax =  -6.64157833853420E+01  1.21526360935727E+00
(PID.TID 0000.0001)  ploadbar=  1.01084597026907E+05
 cg2d: Sum(rhs),rhsMax =  -6.63534827722160E+01  1.21596932364555E+00
(PID.TID 0000.0001)  ploadbar=  1.01084723012474E+05
 cg2d: Sum(rhs),rhsMax =  -6.63218504549577E+01  1.21604948433426E+00
(PID.TID 0000.0001)  ploadbar=  1.01084848998042E+05
 cg2d: Sum(rhs),rhsMax =  -6.63211425554720E+01  1.21549419178010E+00
(PID.TID 0000.0001)  ploadbar=  1.01084974983609E+05
 cg2d: Sum(rhs),rhsMax =  -6.63532700865303E+01  1.21426326822254E+00
(PID.TID 0000.0001)  ploadbar=  1.01085100969177E+05
 cg2d: Sum(rhs),rhsMax =  -6.65239330546073E+01  1.21054034368367E+00
(PID.TID 0000.0001)  ploadbar=  1.01084027399717E+05
 cg2d: Sum(rhs),rhsMax =  -6.68031323385595E+01  1.20490705703710E+00
(PID.TID 0000.0001)  ploadbar=  1.01082953830257E+05
 cg2d: Sum(rhs),rhsMax =  -6.72013526062665E+01  1.19722066402660E+00
(PID.TID 0000.0001)  ploadbar=  1.01081880260798E+05
 cg2d: Sum(rhs),rhsMax =  -6.77167462289225E+01  1.18758488812075E+00
(PID.TID 0000.0001)  ploadbar=  1.01080806691338E+05
 cg2d: Sum(rhs),rhsMax =  -6.83017186792183E+01  1.17690658871880E+00
(PID.TID 0000.0001)  ploadbar=  1.01079733121878E+05
 cg2d: Sum(rhs),rhsMax =  -6.89010225927319E+01  1.16617221834984E+00
(PID.TID 0000.0001)  ploadbar=  1.01078659552419E+05
 cg2d: Sum(rhs),rhsMax =  -6.95237736539630E+01  1.15524556128448E+00
(PID.TID 0000.0001)  ploadbar=  1.01079013982376E+05
 cg2d: Sum(rhs),rhsMax =  -7.00810814715116E+01  1.14558994596194E+00
(PID.TID 0000.0001)  ploadbar=  1.01079368412333E+05
 cg2d: Sum(rhs),rhsMax =  -7.06308524707809E+01  1.13620895330588E+00
(PID.TID 0000.0001)  ploadbar=  1.01079722842289E+05
 cg2d: Sum(rhs),rhsMax =  -7.12066663980985E+01  1.12655428233813E+00
(PID.TID 0000.0001)  ploadbar=  1.01080077272247E+05
 cg2d: Sum(rhs),rhsMax =  -7.15468945326510E+01  1.12072198650157E+00
(PID.TID 0000.0001)  ploadbar=  1.01080431702203E+05
 cg2d: Sum(rhs),rhsMax =  -7.17238765180769E+01  1.11746693090362E+00
(PID.TID 0000.0001)  ploadbar=  1.01080786132160E+05
 cg2d: Sum(rhs),rhsMax =  -7.19138544597884E+01  1.11402932362385E+00
(PID.TID 0000.0001)  ploadbar=  1.01081714314280E+05
 cg2d: Sum(rhs),rhsMax =  -7.16738403304698E+01  1.11727320847342E+00
(PID.TID 0000.0001)  ploadbar=  1.01082642496401E+05
 cg2d: Sum(rhs),rhsMax =  -7.09370630500917E+01  1.12838333793510E+00
(PID.TID 0000.0001)  ploadbar=  1.01083570678521E+05
 cg2d: Sum(rhs),rhsMax =  -7.00703202305945E+01  1.14183416656616E+00
(PID.TID 0000.0001)  ploadbar=  1.01084498860641E+05
 cg2d: Sum(rhs),rhsMax =  -6.90847096948186E+01  1.15759854696155E+00
(PID.TID 0000.0001)  ploadbar=  1.01085427042761E+05
 cg2d: Sum(rhs),rhsMax =  -6.80234154291829E+01  1.17510489795421E+00
(PID.TID 0000.0001)  ploadbar=  1.01086355224881E+05
 cg2d: Sum(rhs),rhsMax =  -6.70243257689436E+01  1.19203450749156E+00
(PID.TID 0000.0001)  ploadbar=  1.01087527180182E+05
 cg2d: Sum(rhs),rhsMax =  -6.62015158645264E+01  1.20622641900004E+00
(PID.TID 0000.0001)  ploadbar=  1.01088699135483E+05
 cg2d: Sum(rhs),rhsMax =  -6.55248162256101E+01  1.21801573949217E+00
(PID.TID 0000.0001)  ploadbar=  1.01089871090784E+05
 cg2d: Sum(rhs),rhsMax =  -6.49761571490775E+01  1.22758031600790E+00
(PID.TID 0000.0001)  ploadbar=  1.01091043046085E+05
 cg2d: Sum(rhs),rhsMax =  -6.45255869611988E+01  1.23537183032324E+00
(PID.TID 0000.0001)  ploadbar=  1.01092215001387E+05
 cg2d: Sum(rhs),rhsMax =  -6.40816870257639E+01  1.24308105929163E+00
(PID.TID 0000.0001)  ploadbar=  1.01093386956688E+05
 cg2d: Sum(rhs),rhsMax =  -6.35786187174147E+01  1.25215722438383E+00
(PID.TID 0000.0001)  ploadbar=  1.01093934275655E+05
 cg2d: Sum(rhs),rhsMax =  -6.30770217609000E+01  1.26143988218519E+00
(PID.TID 0000.0001)  ploadbar=  1.01094481594621E+05
 cg2d: Sum(rhs),rhsMax =  -6.25731376653995E+01  1.27100517665278E+00
(PID.TID 0000.0001)  ploadbar=  1.01095028913588E+05
 cg2d: Sum(rhs),rhsMax =  -6.20770947431912E+01  1.28064556733255E+00
(PID.TID 0000.0001)  ploadbar=  1.01095576232555E+05
 cg2d: Sum(rhs),rhsMax =  -6.15990796284332E+01  1.29013700725541E+00
(PID.TID 0000.0001)  ploadbar=  1.01096123551522E+05
 cg2d: Sum(rhs),rhsMax =  -6.11410092790230E+01  1.29941800788174E+00
(PID.TID 0000.0001)  ploadbar=  1.01096670870488E+05
 cg2d: Sum(rhs),rhsMax =  -6.07759083284733E+01  1.30683330268568E+00
(PID.TID 0000.0001)  ploadbar=  1.01096337074794E+05
 cg2d: Sum(rhs),rhsMax =  -6.04664084357301E+01  1.31312055880716E+00
(PID.TID 0000.0001)  ploadbar=  1.01096003279100E+05
 cg2d: Sum(rhs),rhsMax =  -6.01992650430918E+01  1.31852882597251E+00
(PID.TID 0000.0001)  ploadbar=  1.01095669483405E+05
 cg2d: Sum(rhs),rhsMax =  -5.99656260225255E+01  1.32322531078727E+00
(PID.TID 0000.0001)  ploadbar=  1.01095335687711E+05
 cg2d: Sum(rhs),rhsMax =  -5.97731947260365E+01  1.32701979335560E+00
(PID.TID 0000.0001)  ploadbar=  1.01095001892016E+05
 cg2d: Sum(rhs),rhsMax =  -5.96187058434152E+01  1.32996612889886E+00
(PID.TID 0000.0001)  ploadbar=  1.01094668096322E+05
 cg2d: Sum(rhs),rhsMax =  -5.94992099181440E+01  1.33217162557259E+00
(PID.TID 0000.0001)  ploadbar=  1.01093309258648E+05
 cg2d: Sum(rhs),rhsMax =  -5.93976149504528E+01  1.33400793612431E+00
(PID.TID 0000.0001)  ploadbar=  1.01091950420974E+05
 cg2d: Sum(rhs),rhsMax =  -5.93083268794220E+01  1.33559594094323E+00
(PID.TID 0000.0001)  ploadbar=  1.01090591583300E+05
 cg2d: Sum(rhs),rhsMax =  -5.92231195222292E+01  1.33711852774334E+00
(PID.TID 0000.0001)  ploadbar=  1.01089232745626E+05
 cg2d: Sum(rhs),rhsMax =  -5.91434655633725E+01  1.33853878656833E+00
(PID.TID 0000.0001)  ploadbar=  1.01087873907952E+05
 cg2d: Sum(rhs),rhsMax =  -5.90712281790440E+01  1.33980989370998E+00
(PID.TID 0000.0001)  ploadbar=  1.01086515070279E+05
 cg2d: Sum(rhs),rhsMax =  -5.89343783458305E+01  1.34252309053931E+00
(PID.TID 0000.0001)  ploadbar=  1.01085805978213E+05
 cg2d: Sum(rhs),rhsMax =  -5.88085533299112E+01  1.34495940913339E+00
(PID.TID 0000.0001)  ploadbar=  1.01085096886148E+05
 cg2d: Sum(rhs),rhsMax =  -5.86869735050614E+01  1.34726618676843E+00
(PID.TID 0000.0001)  ploadbar=  1.01084387794083E+05
 cg2d: Sum(rhs),rhsMax =  -5.85684594816979E+01  1.34946032391262E+00
(PID.TID 0000.0001)  ploadbar=  1.01083678702017E+05
 cg2d: Sum(rhs),rhsMax =  -5.84532342288494E+01  1.35152707261597E+00
(PID.TID 0000.0001)  ploadbar=  1.01082969609952E+05
 cg2d: Sum(rhs),rhsMax =  -5.83454474939627E+01  1.35336802006343E+00
(PID.TID 0000.0001)  ploadbar=  1.01082260517887E+05
 cg2d: Sum(rhs),rhsMax =  -5.82721582411657E+01  1.35443238166935E+00
(PID.TID 0000.0001)  ploadbar=  1.01081551742602E+05
 cg2d: Sum(rhs),rhsMax =  -5.82223240352940E+01  1.35496496521091E+00
(PID.TID 0000.0001)  ploadbar=  1.01080842967317E+05
 cg2d: Sum(rhs),rhsMax =  -5.81988118484990E+01  1.35489275383678E+00
(PID.TID 0000.0001)  ploadbar=  1.01080134192032E+05
 cg2d: Sum(rhs),rhsMax =  -5.82004850987168E+01  1.35423303223081E+00
(PID.TID 0000.0001)  ploadbar=  1.01079425416748E+05
 cg2d: Sum(rhs),rhsMax =  -5.82372842992609E+01  1.35275187798928E+00
(PID.TID 0000.0001)  ploadbar=  1.01078716641463E+05
 cg2d: Sum(rhs),rhsMax =  -5.83073767443205E+01  1.35048861220725E+00
(PID.TID 0000.0001)  ploadbar=  1.01078007866178E+05
 cg2d: Sum(rhs),rhsMax =  -5.84491357802121E+01  1.34657208139268E+00
(PID.TID 0000.0001)  ploadbar=  1.01078023832371E+05
 cg2d: Sum(rhs),rhsMax =  -5.86486567065401E+01  1.34134259880965E+00
(PID.TID 0000.0001)  ploadbar=  1.01078039798563E+05
 cg2d: Sum(rhs),rhsMax =  -5.88975072691848E+01  1.33501792827393E+00
(PID.TID 0000.0001)  ploadbar=  1.01078055764756E+05
 cg2d: Sum(rhs),rhsMax =  -5.91835119957622E+01  1.32789879526738E+00
(PID.TID 0000.0001)  ploadbar=  1.01078071730948E+05
 cg2d: Sum(rhs),rhsMax =  -5.94945796504964E+01  1.32027584060353E+00
(PID.TID 0000.0001)  ploadbar=  1.01078087697141E+05
 cg2d: Sum(rhs),rhsMax =  -5.98299841558691E+01  1.31217902499217E+00
(PID.TID 0000.0001)  ploadbar=  1.01078103663334E+05
 cg2d: Sum(rhs),rhsMax =  -6.05326346282868E+01  1.29628343098755E+00
(PID.TID 0000.0001)  ploadbar=  1.01078633801942E+05
 cg2d: Sum(rhs),rhsMax =  -6.15682380806224E+01  1.27384558111409E+00
(PID.TID 0000.0001)  ploadbar=  1.01079163940551E+05
 cg2d: Sum(rhs),rhsMax =  -6.27983880836500E+01  1.24828645862747E+00
(PID.TID 0000.0001)  ploadbar=  1.01079694079159E+05
 cg2d: Sum(rhs),rhsMax =  -6.42970762241451E+01  1.21860822076988E+00
(PID.TID 0000.0001)  ploadbar=  1.01080224217767E+05
 cg2d: Sum(rhs),rhsMax =  -6.61178090718816E+01  1.18448857764542E+00
(PID.TID 0000.0001)  ploadbar=  1.01080754356376E+05
 cg2d: Sum(rhs),rhsMax =  -6.83071473719287E+01  1.14597590374506E+00
(PID.TID 0000.0001)  ploadbar=  1.01081284494984E+05
 cg2d: Sum(rhs),rhsMax =  -6.71160815687889E+01  1.16573834766020E+00
(PID.TID 0000.0001)  ploadbar=  1.01080632987383E+05
 cg2d: Sum(rhs),rhsMax =  -6.49926527983568E+01  1.20321077758898E+00
(PID.TID 0000.0001)  ploadbar=  1.01079981479781E+05
 cg2d: Sum(rhs),rhsMax =  -6.29563707076371E+01  1.24146651839092E+00
(PID.TID 0000.0001)  ploadbar=  1.01079329972179E+05
 cg2d: Sum(rhs),rhsMax =  -6.08115211887791E+01  1.28453656121182E+00
(PID.TID 0000.0001)  ploadbar=  1.01078678464577E+05
 cg2d: Sum(rhs),rhsMax =  -5.86058692046840E+01  1.33209584908792E+00
(PID.TID 0000.0001)  ploadbar=  1.01078026956975E+05
 cg2d: Sum(rhs),rhsMax =  -5.64014532308839E+01  1.38329471814065E+00
(PID.TID 0000.0001)  ploadbar=  1.01077375449373E+05
 cg2d: Sum(rhs),rhsMax =  -5.43424845765445E+01  1.43488517317408E+00
(PID.TID 0000.0001)  ploadbar=  1.01075474557823E+05
 cg2d: Sum(rhs),rhsMax =  -5.24486542994472E+01  1.48592337046844E+00
(PID.TID 0000.0001)  ploadbar=  1.01073573666274E+05
 cg2d: Sum(rhs),rhsMax =  -5.07297451297863E+01  1.53554650090351E+00
(PID.TID 0000.0001)  ploadbar=  1.01071672774725E+05
 cg2d: Sum(rhs),rhsMax =  -4.91895524385473E+01  1.58294908818403E+00
(PID.TID 0000.0001)  ploadbar=  1.01069771883175E+05
 cg2d: Sum(rhs),rhsMax =  -4.78168006526665E+01  1.62776290617554E+00
(PID.TID 0000.0001)  ploadbar=  1.01067870991626E+05
 cg2d: Sum(rhs),rhsMax =  -4.65968035033128E+01  1.66979418829041E+00
(PID.TID 0000.0001)  ploadbar=  1.01065970100077E+05
 cg2d: Sum(rhs),rhsMax =  -4.55095762328600E+01  1.70909514432585E+00
(PID.TID 0000.0001)  ploadbar=  1.01065727786269E+05
 cg2d: Sum(rhs),rhsMax =  -4.45205304639944E+01  1.74646097043393E+00
(PID.TID 0000.0001)  ploadbar=  1.01065485472462E+05
 cg2d: Sum(rhs),rhsMax =  -4.36139880834984E+01  1.78213829987950E+00
(PID.TID 0000.0001)  ploadbar=  1.01065243158654E+05
 cg2d: Sum(rhs),rhsMax =  -4.27841304111014E+01  1.81605133043894E+00
(PID.TID 0000.0001)  ploadbar=  1.01065000844847E+05
 cg2d: Sum(rhs),rhsMax =  -4.20270932240032E+01  1.84807165937162E+00
(PID.TID 0000.0001)  ploadbar=  1.01064758531039E+05
 cg2d: Sum(rhs),rhsMax =  -4.13394678549941E+01  1.87807631715018E+00
(PID.TID 0000.0001)  ploadbar=  1.01064516217232E+05
 cg2d: Sum(rhs),rhsMax =  -4.07202255237241E+01  1.90592605437958E+00
(PID.TID 0000.0001)  ploadbar=  1.01064454050655E+05
 cg2d: Sum(rhs),rhsMax =  -4.01719059825284E+01  1.93125329860319E+00
(PID.TID 0000.0001)  ploadbar=  1.01064391884078E+05
 cg2d: Sum(rhs),rhsMax =  -3.96814391998776E+01  1.95445766267129E+00
(PID.TID 0000.0001)  ploadbar=  1.01064329717502E+05
 cg2d: Sum(rhs),rhsMax =  -3.92399098774046E+01  1.97580098693174E+00
(PID.TID 0000.0001)  ploadbar=  1.01064267550925E+05
 cg2d: Sum(rhs),rhsMax =  -3.88414815198798E+01  1.99542979189077E+00
(PID.TID 0000.0001)  ploadbar=  1.01064205384349E+05
 cg2d: Sum(rhs),rhsMax =  -3.84793138378266E+01  2.01357280064980E+00
(PID.TID 0000.0001)  ploadbar=  1.01064143217772E+05
 cg2d: Sum(rhs),rhsMax =  -3.81433927074638E+01  2.03067156909738E+00
(PID.TID 0000.0001)  ploadbar=  1.01064622936013E+05
 cg2d: Sum(rhs),rhsMax =  -3.78290162994345E+01  2.04690750023471E+00
(PID.TID 0000.0001)  ploadbar=  1.01065102654254E+05
 cg2d: Sum(rhs),rhsMax =  -3.76168617814699E+01  2.05779828728405E+00
(PID.TID 0000.0001)  ploadbar=  1.01065582372494E+05
 cg2d: Sum(rhs),rhsMax =  -3.74015616434725E+01  2.06896779645542E+00
(PID.TID 0000.0001)  ploadbar=  1.01066062090735E+05
 cg2d: Sum(rhs),rhsMax =  -3.71895923973469E+01  2.08005094934975E+00
(PID.TID 0000.0001)  ploadbar=  1.01066541808976E+05
 cg2d: Sum(rhs),rhsMax =  -3.69917620609037E+01  2.09042732162769E+00
(PID.TID 0000.0001)  ploadbar=  1.01067021527216E+05
 cg2d: Sum(rhs),rhsMax =  -3.68037322033926E+01  2.10046951027725E+00
(PID.TID 0000.0001)  ploadbar=  1.01067275573142E+05
 cg2d: Sum(rhs),rhsMax =  -3.66355959444365E+01  2.10957484077740E+00
(PID.TID 0000.0001)  ploadbar=  1.01067529619069E+05
 cg2d: Sum(rhs),rhsMax =  -3.64905259046045E+01  2.11751841832222E+00
(PID.TID 0000.0001)  ploadbar=  1.01067783664995E+05
 cg2d: Sum(rhs),rhsMax =  -3.63595018335851E+01  2.12478147623322E+00
(PID.TID 0000.0001)  ploadbar=  1.01068037710921E+05
 cg2d: Sum(rhs),rhsMax =  -3.62545038541050E+01  2.13063057259657E+00
(PID.TID 0000.0001)  ploadbar=  1.01068291756847E+05
 cg2d: Sum(rhs),rhsMax =  -3.61842705857329E+01  2.13451433830004E+00
(PID.TID 0000.0001)  ploadbar=  1.01068545802773E+05
 cg2d: Sum(rhs),rhsMax =  -3.61248929053566E+01  2.13778580654545E+00
(PID.TID 0000.0001)  ploadbar=  1.01069078380097E+05
 cg2d: Sum(rhs),rhsMax =  -3.59598838837725E+01  2.14736161395519E+00
(PID.TID 0000.0001)      cg2d_init_res =   1.61667616095437E-01
(PID.TID 0000.0001)      cg2d_iters(min,last) =      -1     141
(PID.TID 0000.0001)      cg2d_last_res =   9.13911748746225E-08
(PID.TID 0000.0001) // =======================================================
(PID.TID 0000.0001) // Begin MONITOR dynamic field statistics
(PID.TID 0000.0001) // =======================================================
(PID.TID 0000.0001) %MON time_tsnumber                =                  1752
(PID.TID 0000.0001) %MON time_secondsf                =   6.3072000000000E+06
(PID.TID 0000.0001) %MON dynstat_eta_max              =   1.2570091421209E+00
(PID.TID 0000.0001) %MON dynstat_eta_min              =  -6.2153920318523E+00
(PID.TID 0000.0001) %MON dynstat_eta_mean             =   3.9082873834394E-02
(PID.TID 0000.0001) %MON dynstat_eta_sd               =   7.3339103842172E-01
(PID.TID 0000.0001) %MON dynstat_eta_del2             =   2.1512106976656E-04
(PID.TID 0000.0001) %MON dynstat_uvel_max             =   6.8694492123076E-01
(PID.TID 0000.0001) %MON dynstat_uvel_min             =  -7.2233331141329E-01
(PID.TID 0000.0001) %MON dynstat_uvel_mean            =   1.3440706360661E-03
(PID.TID 0000.0001) %MON dynstat_uvel_sd              =   2.0176347519436E-02
(PID.TID 0000.0001) %MON dynstat_uvel_del2            =   8.7818611752161E-06
(PID.TID 0000.0001) %MON dynstat_vvel_max             =   6.7440343294555E-01
(PID.TID 0000.0001) %MON dynstat_vvel_min             =  -9.1457613520866E-01
(PID.TID 0000.0001) %MON dynstat_vvel_mean            =   1.0701682578628E-03
(PID.TID 0000.0001) %MON dynstat_vvel_sd              =   2.1696111373545E-02
(PID.TID 0000.0001) %MON dynstat_vvel_del2            =   8.9013781512906E-06
(PID.TID 0000.0001) %MON dynstat_wvel_max             =   5.4196648462359E-04
(PID.TID 0000.0001) %MON dynstat_wvel_min             =  -9.6877567543720E-04
(PID.TID 0000.0001) %MON dynstat_wvel_mean            =   7.2041380376051E-09
(PID.TID 0000.0001) %MON dynstat_wvel_sd              =   2.1664354348595E-05
(PID.TID 0000.0001) %MON dynstat_wvel_del2            =   1.5626196107232E-08
(PID.TID 0000.0001) %MON dynstat_theta_max            =   3.1699320091810E+01
(PID.TID 0000.0001) %MON dynstat_theta_min            =  -2.0289270104766E+00
(PID.TID 0000.0001) %MON dynstat_theta_mean           =   3.5868875043237E+00
(PID.TID 0000.0001) %MON dynstat_theta_sd             =   4.4399502079904E+00
(PID.TID 0000.0001) %MON dynstat_theta_del2           =   8.7486304935591E-05
(PID.TID 0000.0001) %MON dynstat_salt_max             =   4.0641562600610E+01
(PID.TID 0000.0001) %MON dynstat_salt_min             =   2.5618251348578E+01
(PID.TID 0000.0001) %MON dynstat_salt_mean            =   3.4727280996551E+01
(PID.TID 0000.0001) %MON dynstat_salt_sd              =   3.7799223847934E-01
(PID.TID 0000.0001) %MON dynstat_salt_del2            =   2.0444374418467E-05
(PID.TID 0000.0001) %MON dynstat_sst_max              =   3.1683961795929E+01
(PID.TID 0000.0001) %MON dynstat_sst_min              =  -1.9662719669304E+00
(PID.TID 0000.0001) %MON dynstat_sst_mean             =   1.8461116628158E+01
(PID.TID 0000.0001) %MON dynstat_sst_sd               =   1.0199007751557E+01
(PID.TID 0000.0001) %MON dynstat_sst_del2             =   6.7979943039919E-04
(PID.TID 0000.0001) %MON dynstat_sss_max              =   4.0578362443881E+01
(PID.TID 0000.0001) %MON dynstat_sss_min              =   2.5618251348578E+01
(PID.TID 0000.0001) %MON dynstat_sss_mean             =   3.4752433153200E+01
(PID.TID 0000.0001) %MON dynstat_sss_sd               =   1.1854583897641E+00
(PID.TID 0000.0001) %MON dynstat_sss_del2             =   3.3339015271518E-04
(PID.TID 0000.0001) %MON forcing_qnet_max             =   7.6024965892221E+02
(PID.TID 0000.0001) %MON forcing_qnet_min             =  -5.5529529280755E+02
(PID.TID 0000.0001) %MON forcing_qnet_mean            =   1.4623797856451E+01
(PID.TID 0000.0001) %MON forcing_qnet_sd              =   1.8255233994906E+02
(PID.TID 0000.0001) %MON forcing_qnet_del2            =   9.0226900305466E-02
(PID.TID 0000.0001) %MON forcing_qsw_max              =   7.9450719830289E+01
(PID.TID 0000.0001) %MON forcing_qsw_min              =  -6.2460430722840E+02
(PID.TID 0000.0001) %MON forcing_qsw_mean             =  -1.4635802077037E+02
(PID.TID 0000.0001) %MON forcing_qsw_sd               =   1.6129206108320E+02
(PID.TID 0000.0001) %MON forcing_qsw_del2             =   4.5961165209761E-02
(PID.TID 0000.0001) %MON forcing_empmr_max            =   1.4634038596332E-03
(PID.TID 0000.0001) %MON forcing_empmr_min            =  -4.3111243177599E-03
(PID.TID 0000.0001) %MON forcing_empmr_mean           =   1.2165259409036E-06
(PID.TID 0000.0001) %MON forcing_empmr_sd             =   1.0491462455644E-04
(PID.TID 0000.0001) %MON forcing_empmr_del2           =   2.7241026938774E-07
(PID.TID 0000.0001) %MON forcing_fu_max               =   1.0611406069926E+00
(PID.TID 0000.0001) %MON forcing_fu_min               =  -1.0520294507345E+00
(PID.TID 0000.0001) %MON forcing_fu_mean              =   1.2581132081808E-02
(PID.TID 0000.0001) %MON forcing_fu_sd                =   1.0402199613148E-01
(PID.TID 0000.0001) %MON forcing_fu_del2              =   8.1621630511283E-05
(PID.TID 0000.0001) %MON forcing_fv_max               =   9.0132539470991E-01
(PID.TID 0000.0001) %MON forcing_fv_min               =  -9.6669288794563E-01
(PID.TID 0000.0001) %MON forcing_fv_mean              =   1.1791784384531E-03
(PID.TID 0000.0001) %MON forcing_fv_sd                =   1.1088397271708E-01
(PID.TID 0000.0001) %MON forcing_fv_del2              =   6.8149850152050E-05
(PID.TID 0000.0001) %MON trAdv_CFL_u_max              =   5.9617596212162E-02
(PID.TID 0000.0001) %MON trAdv_CFL_v_max              =   5.2705800696308E-02
(PID.TID 0000.0001) %MON trAdv_CFL_w_max              =   1.0240845485717E-01
(PID.TID 0000.0001) %MON advcfl_uvel_max              =   5.6548889506223E-02
(PID.TID 0000.0001) %MON advcfl_vvel_max              =   4.2334357351211E-02
(PID.TID 0000.0001) %MON advcfl_wvel_max              =   1.0532603346957E-01
(PID.TID 0000.0001) %MON advcfl_W_hf_max              =   1.0626330530788E-01
(PID.TID 0000.0001) %MON pe_b_mean                    =   1.3904256736181E-03
(PID.TID 0000.0001) %MON ke_max                       =   5.2239448864501E-01
(PID.TID 0000.0001) %MON ke_mean                      =   4.2469852042295E-04
(PID.TID 0000.0001) %MON ke_vol                       =   1.3350118706736E+18
(PID.TID 0000.0001) %MON vort_r_min                   =  -2.1063361106287E-05
(PID.TID 0000.0001) %MON vort_r_max                   =   1.7805541494396E-05
(PID.TID 0000.0001) %MON vort_a_mean                  =  -1.9727725400721E-05
(PID.TID 0000.0001) %MON vort_a_sd                    =   7.4542938331405E-05
(PID.TID 0000.0001) %MON vort_p_mean                  =  -2.1760097635095E-05
(PID.TID 0000.0001) %MON vort_p_sd                    =   9.7248113319535E-05
(PID.TID 0000.0001) %MON surfExpan_theta_mean         =   2.4961716086205E-07
(PID.TID 0000.0001) %MON surfExpan_salt_mean          =   6.2522303989909E-09
(PID.TID 0000.0001) // =======================================================
(PID.TID 0000.0001) // End MONITOR dynamic field statistics
(PID.TID 0000.0001) // =======================================================
(PID.TID 0000.0001)  ploadbar=  1.01069610957421E+05
(PID.TID 0000.0001) %SBO sbo_mass                     =   1.3737507832907E+21
(PID.TID 0000.0001) %SBO sbo_mass_fw                  =   3.7967920177572E+16
(PID.TID 0000.0001) %SBO sbo_zoamc                    =   1.0547920501695E+25
(PID.TID 0000.0001) %SBO sbo_zoamp                    =   2.9276525452508E+30
(PID.TID 0000.0001) // =======================================================
(PID.TID 0000.0001) // Begin MONITOR SEAICE statistics
(PID.TID 0000.0001) // =======================================================
(PID.TID 0000.0001) %MON seaice_tsnumber              =                  1752
(PID.TID 0000.0001) %MON seaice_time_sec              =   6.3072000000000E+06
(PID.TID 0000.0001) %MON seaice_uice_max              =   4.0000000000000E-01
(PID.TID 0000.0001) %MON seaice_uice_min              =  -4.0000000000000E-01
(PID.TID 0000.0001) %MON seaice_uice_mean             =   2.4698048092248E-03
(PID.TID 0000.0001) %MON seaice_uice_sd               =   1.6327644749520E-01
(PID.TID 0000.0001) %MON seaice_uice_del2             =   1.4263953558653E-04
(PID.TID 0000.0001) %MON seaice_vice_max              =   4.0000000000000E-01
(PID.TID 0000.0001) %MON seaice_vice_min              =  -4.0000000000000E-01
(PID.TID 0000.0001) %MON seaice_vice_mean             =  -9.2907342718300E-03
(PID.TID 0000.0001) %MON seaice_vice_sd               =   1.7624680799689E-01
(PID.TID 0000.0001) %MON seaice_vice_del2             =   1.4385706798010E-04
(PID.TID 0000.0001) %MON seaice_area_max              =   9.7000000000000E-01
(PID.TID 0000.0001) %MON seaice_area_min              =   0.0000000000000E+00
(PID.TID 0000.0001) %MON seaice_area_mean             =   4.9089904325573E-02
(PID.TID 0000.0001) %MON seaice_area_sd               =   2.0430135347498E-01
(PID.TID 0000.0001) %MON seaice_area_del2             =   2.2730563798851E-04
(PID.TID 0000.0001) %MON seaice_heff_max              =   6.0769871609313E+00
(PID.TID 0000.0001) %MON seaice_heff_min              =   0.0000000000000E+00
(PID.TID 0000.0001) %MON seaice_heff_mean             =   6.9506069918238E-02
(PID.TID 0000.0001) %MON seaice_heff_sd               =   3.6461201917229E-01
(PID.TID 0000.0001) %MON seaice_heff_del2             =   2.2277772263771E-04
(PID.TID 0000.0001) %MON seaice_hsnow_max             =   1.0516977903282E+00
(PID.TID 0000.0001) %MON seaice_hsnow_min             =  -7.8859308776190E-05
(PID.TID 0000.0001) %MON seaice_hsnow_mean            =   7.8325333887450E-03
(PID.TID 0000.0001) %MON seaice_hsnow_sd              =   4.5740841423552E-02
(PID.TID 0000.0001) %MON seaice_hsnow_del2            =   4.4082860615730E-05
(PID.TID 0000.0001) // =======================================================
(PID.TID 0000.0001) // End MONITOR SEAICE statistics
(PID.TID 0000.0001) // =======================================================
(PID.TID 0000.0001) // =======================================================
(PID.TID 0000.0001) // Begin MONITOR EXF statistics
(PID.TID 0000.0001) // =======================================================
(PID.TID 0000.0001) %MON exf_tsnumber                 =                  1752
(PID.TID 0000.0001) %MON exf_time_sec                 =   6.3072000000000E+06
(PID.TID 0000.0001) %MON exf_ustress_max              =   1.4396965275426E+00
(PID.TID 0000.0001) %MON exf_ustress_min              =  -1.0447053313255E+00
(PID.TID 0000.0001) %MON exf_ustress_mean             =   1.2650357019797E-02
(PID.TID 0000.0001) %MON exf_ustress_sd               =   1.0562586030690E-01
(PID.TID 0000.0001) %MON exf_ustress_del2             =   9.9275013429394E-05
(PID.TID 0000.0001) %MON exf_vstress_max              =   8.7365045265379E-01
(PID.TID 0000.0001) %MON exf_vstress_min              =  -9.6799236911501E-01
(PID.TID 0000.0001) %MON exf_vstress_mean             =   1.7920409026405E-03
(PID.TID 0000.0001) %MON exf_vstress_sd               =   1.1171223924807E-01
(PID.TID 0000.0001) %MON exf_vstress_del2             =   8.0868165428926E-05
(PID.TID 0000.0001) %MON exf_hflux_max                =   1.0370783091619E+03
(PID.TID 0000.0001) %MON exf_hflux_min                =  -5.1543292102795E+02
(PID.TID 0000.0001) %MON exf_hflux_mean               =   3.0093250741446E+01
(PID.TID 0000.0001) %MON exf_hflux_sd                 =   2.0014791830447E+02
(PID.TID 0000.0001) %MON exf_hflux_del2               =   4.8963547014358E-01
(PID.TID 0000.0001) %MON exf_sflux_max                =   2.3865038298713E-07
(PID.TID 0000.0001) %MON exf_sflux_min                =  -4.2819708676292E-06
(PID.TID 0000.0001) %MON exf_sflux_mean               =   4.3172144081346E-10
(PID.TID 0000.0001) %MON exf_sflux_sd                 =   9.7726540535388E-08
(PID.TID 0000.0001) %MON exf_sflux_del2               =   2.7583231338930E-10
(PID.TID 0000.0001) %MON exf_wspeed_max               =   2.1851756095886E+01
(PID.TID 0000.0001) %MON exf_wspeed_min               =   2.8774048388004E-01
(PID.TID 0000.0001) %MON exf_wspeed_mean              =   6.8613227575660E+00
(PID.TID 0000.0001) %MON exf_wspeed_sd                =   3.1794185225919E+00
(PID.TID 0000.0001) %MON exf_wspeed_del2              =   1.7451786330764E-02
(PID.TID 0000.0001) %MON exf_atemp_max                =   3.0567787494659E+02
(PID.TID 0000.0001) %MON exf_atemp_min                =   2.2366437759399E+02
(PID.TID 0000.0001) %MON exf_atemp_mean               =   2.8940862470442E+02
(PID.TID 0000.0001) %MON exf_atemp_sd                 =   1.2355167474292E+01
(PID.TID 0000.0001) %MON exf_atemp_del2               =   3.6952473533553E-02
(PID.TID 0000.0001) %MON exf_aqh_max                  =   2.1431800909340E-02
(PID.TID 0000.0001) %MON exf_aqh_min                  =   4.7269400056393E-05
(PID.TID 0000.0001) %MON exf_aqh_mean                 =   1.0997100703323E-02
(PID.TID 0000.0001) %MON exf_aqh_sd                   =   5.6985927098833E-03
(PID.TID 0000.0001) %MON exf_aqh_del2                 =   2.0939632595490E-05
(PID.TID 0000.0001) %MON exf_lwflux_max               =   2.2014491177165E+02
(PID.TID 0000.0001) %MON exf_lwflux_min               =  -4.3230159929753E+01
(PID.TID 0000.0001) %MON exf_lwflux_mean              =   4.7429845751347E+01
(PID.TID 0000.0001) %MON exf_lwflux_sd                =   2.8271194590398E+01
(PID.TID 0000.0001) %MON exf_lwflux_del2              =   1.2812830930173E-01
(PID.TID 0000.0001) %MON exf_evap_max                 =   2.3314365038935E-07
(PID.TID 0000.0001) %MON exf_evap_min                 =  -5.1112616712595E-08
(PID.TID 0000.0001) %MON exf_evap_mean                =   4.2617441297949E-08
(PID.TID 0000.0001) %MON exf_evap_sd                  =   2.7508866106711E-08
(PID.TID 0000.0001) %MON exf_evap_del2                =   9.6606721421839E-11
(PID.TID 0000.0001) %MON exf_precip_max               =   2.5613436491767E-06
(PID.TID 0000.0001) %MON exf_precip_min               =  -2.4068688375678E-08
(PID.TID 0000.0001) %MON exf_precip_mean              =   3.8557920777117E-08
(PID.TID 0000.0001) %MON exf_precip_sd                =   7.7875658877225E-08
(PID.TID 0000.0001) %MON exf_precip_del2              =   2.3293618391422E-10
(PID.TID 0000.0001) %MON exf_swflux_max               =   1.2468220105177E+02
(PID.TID 0000.0001) %MON exf_swflux_min               =  -5.7730123540225E+02
(PID.TID 0000.0001) %MON exf_swflux_mean              =  -1.5117998560389E+02
(PID.TID 0000.0001) %MON exf_swflux_sd                =   1.5529799410733E+02
(PID.TID 0000.0001) %MON exf_swflux_del2              =   3.8082656531824E-01
(PID.TID 0000.0001) %MON exf_swdown_max               =   6.2232168579102E+02
(PID.TID 0000.0001) %MON exf_swdown_min               =  -1.5688555908203E+02
(PID.TID 0000.0001) %MON exf_swdown_mean              =   1.6391441705570E+02
(PID.TID 0000.0001) %MON exf_swdown_sd                =   1.6785810344158E+02
(PID.TID 0000.0001) %MON exf_swdown_del2              =   4.1354256674674E-01
(PID.TID 0000.0001) %MON exf_lwdown_max               =   4.7533741760254E+02
(PID.TID 0000.0001) %MON exf_lwdown_min               =   7.9792095184326E+01
(PID.TID 0000.0001) %MON exf_lwdown_mean              =   3.6407876533358E+02
(PID.TID 0000.0001) %MON exf_lwdown_sd                =   6.4069810973199E+01
(PID.TID 0000.0001) %MON exf_lwdown_del2              =   6.9797162796429E-01
(PID.TID 0000.0001) %MON exf_apressure_max            =   1.0394780468750E+05
(PID.TID 0000.0001) %MON exf_apressure_min            =   9.6015500000000E+04
(PID.TID 0000.0001) %MON exf_apressure_mean           =   1.0107014353475E+05
(PID.TID 0000.0001) %MON exf_apressure_sd             =   1.0577989349368E+03
(PID.TID 0000.0001) %MON exf_apressure_del2           =   2.0679100166750E+02
(PID.TID 0000.0001) %MON exf_runoff_max               =   4.1620624112208E-06
(PID.TID 0000.0001) %MON exf_runoff_min               =   0.0000000000000E+00
(PID.TID 0000.0001) %MON exf_runoff_mean              =   3.6277990800184E-09
(PID.TID 0000.0001) %MON exf_runoff_sd                =   4.6689937897439E-08
(PID.TID 0000.0001) %MON exf_runoff_del2              =   1.4167815104061E-10
(PID.TID 0000.0001) // =======================================================
(PID.TID 0000.0001) // End MONITOR EXF statistics
(PID.TID 0000.0001) // =======================================================
 cg2d: Sum(rhs),rhsMax =  -3.58309644422593E+01  2.15484377305023E+00
(PID.TID 0000.0001)  ploadbar=  1.01070143534746E+05
 cg2d: Sum(rhs),rhsMax =  -3.57361727907005E+01  2.16029969583959E+00
(PID.TID 0000.0001)  ploadbar=  1.01070676112070E+05
 cg2d: Sum(rhs),rhsMax =  -3.56726114060263E+01  2.16386734967476E+00
(PID.TID 0000.0001)  ploadbar=  1.01071208689394E+05
 cg2d: Sum(rhs),rhsMax =  -3.56400421152032E+01  2.16553494684387E+00
(PID.TID 0000.0001)  ploadbar=  1.01071741266718E+05
 cg2d: Sum(rhs),rhsMax =  -3.56352998242030E+01  2.16555505769132E+00
(PID.TID 0000.0001)  ploadbar=  1.01071593289327E+05
 cg2d: Sum(rhs),rhsMax =  -3.56552690991027E+01  2.16411397645949E+00
(PID.TID 0000.0001)  ploadbar=  1.01071445311936E+05
 cg2d: Sum(rhs),rhsMax =  -3.56973466497838E+01  2.16136985670884E+00
(PID.TID 0000.0001)  ploadbar=  1.01071297334544E+05
 cg2d: Sum(rhs),rhsMax =  -3.57596615007519E+01  2.15744157254727E+00
(PID.TID 0000.0001)  ploadbar=  1.01071149357153E+05
 cg2d: Sum(rhs),rhsMax =  -3.58396045163861E+01  2.15248964060880E+00
(PID.TID 0000.0001)  ploadbar=  1.01071001379762E+05
 cg2d: Sum(rhs),rhsMax =  -3.59323230618522E+01  2.14680439214310E+00
(PID.TID 0000.0001)  ploadbar=  1.01070853402371E+05
 cg2d: Sum(rhs),rhsMax =  -3.60346539384950E+01  2.14050495910538E+00
(PID.TID 0000.0001)  ploadbar=  1.01070110422048E+05
 cg2d: Sum(rhs),rhsMax =  -3.61466393733977E+01  2.13359332549120E+00
(PID.TID 0000.0001)  ploadbar=  1.01069367441725E+05
 cg2d: Sum(rhs),rhsMax =  -3.62664587773856E+01  2.12617697601030E+00
(PID.TID 0000.0001)  ploadbar=  1.01068624461402E+05
 cg2d: Sum(rhs),rhsMax =  -3.63939853216980E+01  2.11826466267421E+00
(PID.TID 0000.0001)  ploadbar=  1.01067881481079E+05
 cg2d: Sum(rhs),rhsMax =  -3.65293143734727E+01  2.10985091336220E+00
(PID.TID 0000.0001)  ploadbar=  1.01067138500757E+05
 cg2d: Sum(rhs),rhsMax =  -3.66731729229199E+01  2.10090058493246E+00
(PID.TID 0000.0001)  ploadbar=  1.01066395520434E+05
 cg2d: Sum(rhs),rhsMax =  -3.68270072380367E+01  2.09153913837207E+00
(PID.TID 0000.0001)  ploadbar=  1.01065162719326E+05
 cg2d: Sum(rhs),rhsMax =  -3.69883915470880E+01  2.08191011099742E+00
(PID.TID 0000.0001)  ploadbar=  1.01063929918218E+05
 cg2d: Sum(rhs),rhsMax =  -3.71558204237708E+01  2.07209616599169E+00
(PID.TID 0000.0001)  ploadbar=  1.01062697117111E+05
 cg2d: Sum(rhs),rhsMax =  -3.73282874763902E+01  2.06214929267704E+00
(PID.TID 0000.0001)  ploadbar=  1.01061464316003E+05
 cg2d: Sum(rhs),rhsMax =  -3.75041216389792E+01  2.05215740967945E+00
(PID.TID 0000.0001)  ploadbar=  1.01060231514895E+05
 cg2d: Sum(rhs),rhsMax =  -3.76805914909389E+01  2.04225556787997E+00
(PID.TID 0000.0001)  ploadbar=  1.01058998713788E+05
 cg2d: Sum(rhs),rhsMax =  -3.78512070665964E+01  2.03274880266797E+00
(PID.TID 0000.0001)  ploadbar=  1.01057429116433E+05
 cg2d: Sum(rhs),rhsMax =  -3.80121854679544E+01  2.02382413748964E+00
(PID.TID 0000.0001)  ploadbar=  1.01055859519079E+05
 cg2d: Sum(rhs),rhsMax =  -3.81633314218243E+01  2.01546879389461E+00
(PID.TID 0000.0001)  ploadbar=  1.01054289921724E+05
 cg2d: Sum(rhs),rhsMax =  -3.82986035052109E+01  2.00797287586268E+00
(PID.TID 0000.0001)  ploadbar=  1.01052720324370E+05
 cg2d: Sum(rhs),rhsMax =  -3.84156839738868E+01  2.00142797575747E+00
(PID.TID 0000.0001)  ploadbar=  1.01051150727015E+05
 cg2d: Sum(rhs),rhsMax =  -3.85141277441746E+01  1.99582962389269E+00
(PID.TID 0000.0001)  ploadbar=  1.01049581129661E+05
 cg2d: Sum(rhs),rhsMax =  -3.85920594238079E+01  1.99133702316722E+00
(PID.TID 0000.0001)  ploadbar=  1.01047336242152E+05
 cg2d: Sum(rhs),rhsMax =  -3.86600969754425E+01  1.98738858337852E+00
(PID.TID 0000.0001)  ploadbar=  1.01045091354643E+05
 cg2d: Sum(rhs),rhsMax =  -3.87201488390170E+01  1.98387595496927E+00
(PID.TID 0000.0001)  ploadbar=  1.01042846467134E+05
 cg2d: Sum(rhs),rhsMax =  -3.87716109333891E+01  1.98081786712890E+00
(PID.TID 0000.0001)  ploadbar=  1.01040601579626E+05
 cg2d: Sum(rhs),rhsMax =  -3.88155135430142E+01  1.97814769127881E+00
(PID.TID 0000.0001)  ploadbar=  1.01038356692117E+05
 cg2d: Sum(rhs),rhsMax =  -3.88515846941887E+01  1.97586803721327E+00
(PID.TID 0000.0001)  ploadbar=  1.01036111804608E+05
 cg2d: Sum(rhs),rhsMax =  -3.88742072738145E+01  1.97426951309337E+00
(PID.TID 0000.0001)  ploadbar=  1.01035109900464E+05
 cg2d: Sum(rhs),rhsMax =  -3.88882593980243E+01  1.97309501055190E+00
(PID.TID 0000.0001)  ploadbar=  1.01034107996321E+05
 cg2d: Sum(rhs),rhsMax =  -3.89019892016724E+01  1.97191579594758E+00
(PID.TID 0000.0001)  ploadbar=  1.01033106092177E+05
 cg2d: Sum(rhs),rhsMax =  -3.89134540263064E+01  1.97081939299839E+00
(PID.TID 0000.0001)  ploadbar=  1.01032104188033E+05
 cg2d: Sum(rhs),rhsMax =  -3.89211696437106E+01  1.96986973053675E+00
(PID.TID 0000.0001)  ploadbar=  1.01031102283889E+05
 cg2d: Sum(rhs),rhsMax =  -3.89239184152662E+01  1.96912187749203E+00
(PID.TID 0000.0001)  ploadbar=  1.01030100379745E+05
 cg2d: Sum(rhs),rhsMax =  -3.89360141420980E+01  1.96803267928194E+00
(PID.TID 0000.0001)  ploadbar=  1.01028423382047E+05
 cg2d: Sum(rhs),rhsMax =  -3.89442617416905E+01  1.96726535118449E+00
(PID.TID 0000.0001)  ploadbar=  1.01026746384350E+05
 cg2d: Sum(rhs),rhsMax =  -3.89534494298155E+01  1.96656995292022E+00
(PID.TID 0000.0001)  ploadbar=  1.01025069386652E+05
 cg2d: Sum(rhs),rhsMax =  -3.89668172827883E+01  1.96577366332098E+00
(PID.TID 0000.0001)  ploadbar=  1.01023392388955E+05
 cg2d: Sum(rhs),rhsMax =  -3.89820196547352E+01  1.96498746710462E+00
(PID.TID 0000.0001)  ploadbar=  1.01021715391257E+05
 cg2d: Sum(rhs),rhsMax =  -3.89961741571681E+01  1.96435016332617E+00
(PID.TID 0000.0001)  ploadbar=  1.01020038393559E+05
 cg2d: Sum(rhs),rhsMax =  -3.90311437953539E+01  1.96264770793557E+00
(PID.TID 0000.0001)  ploadbar=  1.01019295431439E+05
 cg2d: Sum(rhs),rhsMax =  -3.90719519111900E+01  1.96062438523490E+00
(PID.TID 0000.0001)  ploadbar=  1.01018552469318E+05
 cg2d: Sum(rhs),rhsMax =  -3.91157404242224E+01  1.95841374039424E+00
(PID.TID 0000.0001)  ploadbar=  1.01017809507198E+05
 cg2d: Sum(rhs),rhsMax =  -3.91679710843525E+01  1.95573371569432E+00
(PID.TID 0000.0001)  ploadbar=  1.01017066545077E+05
 cg2d: Sum(rhs),rhsMax =  -3.92260015146480E+01  1.95270326488383E+00
(PID.TID 0000.0001)  ploadbar=  1.01016323582956E+05
 cg2d: Sum(rhs),rhsMax =  -3.92860734319635E+01  1.94949287087564E+00
(PID.TID 0000.0001)  ploadbar=  1.01015580620836E+05
 cg2d: Sum(rhs),rhsMax =  -3.93509656377154E+01  1.94607941957368E+00
(PID.TID 0000.0001)  ploadbar=  1.01015972579119E+05
 cg2d: Sum(rhs),rhsMax =  -3.94281265570054E+01  1.94208592703243E+00
(PID.TID 0000.0001)  ploadbar=  1.01016364537401E+05
 cg2d: Sum(rhs),rhsMax =  -3.95095192098197E+01  1.93790476139159E+00
(PID.TID 0000.0001)  ploadbar=  1.01016756495684E+05
 cg2d: Sum(rhs),rhsMax =  -3.95932312390781E+01  1.93362207126074E+00
(PID.TID 0000.0001)  ploadbar=  1.01017148453967E+05
 cg2d: Sum(rhs),rhsMax =  -3.96798171472654E+01  1.92920469392631E+00
(PID.TID 0000.0001)  ploadbar=  1.01017540412250E+05
 cg2d: Sum(rhs),rhsMax =  -3.97680282469968E+01  1.92470852576736E+00
(PID.TID 0000.0001)  ploadbar=  1.01017932370533E+05
 cg2d: Sum(rhs),rhsMax =  -3.98361622723722E+01  1.92112773977816E+00
(PID.TID 0000.0001)  ploadbar=  1.01017602160565E+05
 cg2d: Sum(rhs),rhsMax =  -3.99052663703298E+01  1.91743517013655E+00
(PID.TID 0000.0001)  ploadbar=  1.01017271950597E+05
 cg2d: Sum(rhs),rhsMax =  -3.99776616060969E+01  1.91350881993901E+00
(PID.TID 0000.0001)  ploadbar=  1.01016941740629E+05
 cg2d: Sum(rhs),rhsMax =  -4.00500146404531E+01  1.90950098492657E+00
(PID.TID 0000.0001)  ploadbar=  1.01016611530661E+05
 cg2d: Sum(rhs),rhsMax =  -4.01235424342262E+01  1.90534876760589E+00
(PID.TID 0000.0001)  ploadbar=  1.01016281320693E+05
 cg2d: Sum(rhs),rhsMax =  -4.01988988565376E+01  1.90101039066176E+00
(PID.TID 0000.0001)  ploadbar=  1.01015951110726E+05
 cg2d: Sum(rhs),rhsMax =  -4.02850848025434E+01  1.89625665248230E+00
(PID.TID 0000.0001)  ploadbar=  1.01014701910369E+05
 cg2d: Sum(rhs),rhsMax =  -4.03759379894306E+01  1.89137400574634E+00
(PID.TID 0000.0001)  ploadbar=  1.01013452710013E+05
 cg2d: Sum(rhs),rhsMax =  -4.04718737470222E+01  1.88634193682694E+00
(PID.TID 0000.0001)  ploadbar=  1.01012203509657E+05
 cg2d: Sum(rhs),rhsMax =  -4.05722717197480E+01  1.88118601835394E+00
(PID.TID 0000.0001)  ploadbar=  1.01010954309301E+05
 cg2d: Sum(rhs),rhsMax =  -4.06751225971521E+01  1.87599615278453E+00
(PID.TID 0000.0001)  ploadbar=  1.01009705108945E+05
 cg2d: Sum(rhs),rhsMax =  -4.07803532936544E+01  1.87077031387624E+00
(PID.TID 0000.0001)  ploadbar=  1.01008455908588E+05
 cg2d: Sum(rhs),rhsMax =  -4.08851541303257E+01  1.86560570079369E+00
(PID.TID 0000.0001)  ploadbar=  1.01007560207399E+05
 cg2d: Sum(rhs),rhsMax =  -4.09875104911070E+01  1.86058750661009E+00
(PID.TID 0000.0001)  ploadbar=  1.01006664506210E+05
 cg2d: Sum(rhs),rhsMax =  -4.10862891495002E+01  1.85574892965225E+00
(PID.TID 0000.0001)  ploadbar=  1.01005768805020E+05
 cg2d: Sum(rhs),rhsMax =  -4.11824700133852E+01  1.85102902649168E+00
(PID.TID 0000.0001)  ploadbar=  1.01004873103831E+05
 cg2d: Sum(rhs),rhsMax =  -4.12748164971861E+01  1.84647314222592E+00
(PID.TID 0000.0001)  ploadbar=  1.01003977402641E+05
 cg2d: Sum(rhs),rhsMax =  -4.13621906548809E+01  1.84211929278240E+00
(PID.TID 0000.0001)  ploadbar=  1.01003081701452E+05
 cg2d: Sum(rhs),rhsMax =  -4.14530530357850E+01  1.83767312443637E+00
(PID.TID 0000.0001)  ploadbar=  1.01003101352415E+05
 cg2d: Sum(rhs),rhsMax =  -4.15426320212379E+01  1.83334216320815E+00
(PID.TID 0000.0001)  ploadbar=  1.01003121003377E+05
 cg2d: Sum(rhs),rhsMax =  -4.16282534449344E+01  1.82923492325315E+00
(PID.TID 0000.0001)  ploadbar=  1.01003140654340E+05
 cg2d: Sum(rhs),rhsMax =  -4.17125611562218E+01  1.82522437795212E+00
(PID.TID 0000.0001)  ploadbar=  1.01003160305303E+05
 cg2d: Sum(rhs),rhsMax =  -4.17958058461981E+01  1.82129376363880E+00
(PID.TID 0000.0001)  ploadbar=  1.01003179956265E+05
 cg2d: Sum(rhs),rhsMax =  -4.18763109351906E+01  1.81750662681238E+00
(PID.TID 0000.0001)  ploadbar=  1.01003199607228E+05
 cg2d: Sum(rhs),rhsMax =  -4.19480498875766E+01  1.81402934038550E+00
(PID.TID 0000.0001)  ploadbar=  1.01002665260871E+05
 cg2d: Sum(rhs),rhsMax =  -4.20157883736410E+01  1.81064709968401E+00
(PID.TID 0000.0001)  ploadbar=  1.01002130914514E+05
 cg2d: Sum(rhs),rhsMax =  -4.20780909659978E+01  1.80741825588236E+00
(PID.TID 0000.0001)  ploadbar=  1.01001596568157E+05
 cg2d: Sum(rhs),rhsMax =  -4.21349899871558E+01  1.80433202316901E+00
(PID.TID 0000.0001)  ploadbar=  1.01001062221800E+05
 cg2d: Sum(rhs),rhsMax =  -4.21879545455298E+01  1.80131579796109E+00
(PID.TID 0000.0001)  ploadbar=  1.01000527875443E+05
 cg2d: Sum(rhs),rhsMax =  -4.22375329815624E+01  1.79833992514499E+00
(PID.TID 0000.0001)  ploadbar=  1.00999993529086E+05
 cg2d: Sum(rhs),rhsMax =  -4.22828148821314E+01  1.79563446261243E+00
(PID.TID 0000.0001)  ploadbar=  1.00999469829190E+05
 cg2d: Sum(rhs),rhsMax =  -4.23285862576438E+01  1.79298885405684E+00
(PID.TID 0000.0001)  ploadbar=  1.00998946129293E+05
 cg2d: Sum(rhs),rhsMax =  -4.23733403231199E+01  1.79045775177896E+00
(PID.TID 0000.0001)  ploadbar=  1.00998422429396E+05
 cg2d: Sum(rhs),rhsMax =  -4.24158969324820E+01  1.78808297262567E+00
(PID.TID 0000.0001)  ploadbar=  1.00997898729500E+05
 cg2d: Sum(rhs),rhsMax =  -4.24562931870701E+01  1.78585347463998E+00
(PID.TID 0000.0001)  ploadbar=  1.00997375029603E+05
 cg2d: Sum(rhs),rhsMax =  -4.24942720421892E+01  1.78377399496552E+00
(PID.TID 0000.0001)  ploadbar=  1.00996851329706E+05
 cg2d: Sum(rhs),rhsMax =  -4.25242195616295E+01  1.78203994565719E+00
(PID.TID 0000.0001)  ploadbar=  1.00996695774068E+05
 cg2d: Sum(rhs),rhsMax =  -4.25465673221890E+01  1.78062475029757E+00
(PID.TID 0000.0001)  ploadbar=  1.00996540218430E+05
 cg2d: Sum(rhs),rhsMax =  -4.25611688018210E+01  1.77952512405716E+00
(PID.TID 0000.0001)  ploadbar=  1.00996384662792E+05
 cg2d: Sum(rhs),rhsMax =  -4.25654651934172E+01  1.77883707880597E+00
(PID.TID 0000.0001)  ploadbar=  1.00996229107153E+05
 cg2d: Sum(rhs),rhsMax =  -4.25582236437189E+01  1.77860268058125E+00
(PID.TID 0000.0001)  ploadbar=  1.00996073551515E+05
 cg2d: Sum(rhs),rhsMax =  -4.25388078154415E+01  1.77884458414059E+00
(PID.TID 0000.0001)  ploadbar=  1.00995917995877E+05
 cg2d: Sum(rhs),rhsMax =  -4.24985264761833E+01  1.78001248046179E+00
(PID.TID 0000.0001)  ploadbar=  1.00995807720140E+05
 cg2d: Sum(rhs),rhsMax =  -4.24382735897684E+01  1.78206936616571E+00
(PID.TID 0000.0001)  ploadbar=  1.00995697444404E+05
 cg2d: Sum(rhs),rhsMax =  -4.23596825641304E+01  1.78494803711390E+00
(PID.TID 0000.0001)  ploadbar=  1.00995587168667E+05
 cg2d: Sum(rhs),rhsMax =  -4.22629790257238E+01  1.78863977891460E+00
(PID.TID 0000.0001)  ploadbar=  1.00995476892930E+05
 cg2d: Sum(rhs),rhsMax =  -4.21528844485257E+01  1.79294775514422E+00
(PID.TID 0000.0001)  ploadbar=  1.00995366617194E+05
 cg2d: Sum(rhs),rhsMax =  -4.20367297402592E+01  1.79756023316049E+00
(PID.TID 0000.0001)  ploadbar=  1.00995256341457E+05
 cg2d: Sum(rhs),rhsMax =  -4.19232464218244E+01  1.80202522527983E+00
(PID.TID 0000.0001)  ploadbar=  1.00995016395679E+05
 cg2d: Sum(rhs),rhsMax =  -4.18254553553425E+01  1.80577503762103E+00
(PID.TID 0000.0001)  ploadbar=  1.00994776449901E+05
 cg2d: Sum(rhs),rhsMax =  -4.17549523367722E+01  1.80828915447454E+00
(PID.TID 0000.0001)  ploadbar=  1.00994536504122E+05
 cg2d: Sum(rhs),rhsMax =  -4.17188606577654E+01  1.80923716780245E+00
(PID.TID 0000.0001)  ploadbar=  1.00994296558344E+05
 cg2d: Sum(rhs),rhsMax =  -4.17224510806332E+01  1.80837607191041E+00
(PID.TID 0000.0001)  ploadbar=  1.00994056612566E+05
 cg2d: Sum(rhs),rhsMax =  -4.17670568450271E+01  1.80564405893528E+00
(PID.TID 0000.0001)  ploadbar=  1.00993816666788E+05
 cg2d: Sum(rhs),rhsMax =  -4.18532049118535E+01  1.80119594873467E+00
(PID.TID 0000.0001)  ploadbar=  1.00994427234729E+05
 cg2d: Sum(rhs),rhsMax =  -4.19782861286116E+01  1.79516376171685E+00
(PID.TID 0000.0001)  ploadbar=  1.00995037802669E+05
 cg2d: Sum(rhs),rhsMax =  -4.21377557642541E+01  1.78776477654577E+00
(PID.TID 0000.0001)  ploadbar=  1.00995648370610E+05
 cg2d: Sum(rhs),rhsMax =  -4.23259686554059E+01  1.77926102680076E+00
(PID.TID 0000.0001)  ploadbar=  1.00996258938551E+05
 cg2d: Sum(rhs),rhsMax =  -4.25382673065183E+01  1.76986897823750E+00
(PID.TID 0000.0001)  ploadbar=  1.00996869506492E+05
 cg2d: Sum(rhs),rhsMax =  -4.27701060298296E+01  1.75980068615458E+00
(PID.TID 0000.0001)  ploadbar=  1.00997480074433E+05
 cg2d: Sum(rhs),rhsMax =  -4.30239908843026E+01  1.74891158761976E+00
(PID.TID 0000.0001)  ploadbar=  1.00997865933147E+05
 cg2d: Sum(rhs),rhsMax =  -4.32994116681781E+01  1.73724697213732E+00
(PID.TID 0000.0001)  ploadbar=  1.00998251791860E+05
 cg2d: Sum(rhs),rhsMax =  -4.35893236715171E+01  1.72511204772500E+00
(PID.TID 0000.0001)  ploadbar=  1.00998637650573E+05
 cg2d: Sum(rhs),rhsMax =  -4.38865568568112E+01  1.71280447980040E+00
(PID.TID 0000.0001)  ploadbar=  1.00999023509287E+05
 cg2d: Sum(rhs),rhsMax =  -4.41864603018653E+01  1.70050235183145E+00
(PID.TID 0000.0001)  ploadbar=  1.00999409368000E+05
 cg2d: Sum(rhs),rhsMax =  -4.44892791425421E+01  1.68819276700707E+00
(PID.TID 0000.0001)  ploadbar=  1.00999795226713E+05
 cg2d: Sum(rhs),rhsMax =  -4.47952374046543E+01  1.67593527527423E+00
(PID.TID 0000.0001)  ploadbar=  1.01000197122718E+05
 cg2d: Sum(rhs),rhsMax =  -4.50901151719293E+01  1.66425063687264E+00
(PID.TID 0000.0001)  ploadbar=  1.01000599018723E+05
 cg2d: Sum(rhs),rhsMax =  -4.53632849539552E+01  1.65350203628663E+00
(PID.TID 0000.0001)  ploadbar=  1.01001000914728E+05
 cg2d: Sum(rhs),rhsMax =  -4.56151042869823E+01  1.64364061727933E+00
(PID.TID 0000.0001)  ploadbar=  1.01001402810732E+05
 cg2d: Sum(rhs),rhsMax =  -4.58453832133006E+01  1.63463941440463E+00
(PID.TID 0000.0001)  ploadbar=  1.01001804706737E+05
 cg2d: Sum(rhs),rhsMax =  -4.60545042398346E+01  1.62645327404649E+00
(PID.TID 0000.0001)  ploadbar=  1.01002206602742E+05
 cg2d: Sum(rhs),rhsMax =  -4.62612033936605E+01  1.61840035909439E+00
(PID.TID 0000.0001)  ploadbar=  1.01002423459436E+05
 cg2d: Sum(rhs),rhsMax =  -4.64567208635820E+01  1.61077399004425E+00
(PID.TID 0000.0001)  ploadbar=  1.01002640316129E+05
 cg2d: Sum(rhs),rhsMax =  -4.66417061052545E+01  1.60353126225831E+00
(PID.TID 0000.0001)  ploadbar=  1.01002857172823E+05
 cg2d: Sum(rhs),rhsMax =  -4.68201787442062E+01  1.59652020382422E+00
(PID.TID 0000.0001)  ploadbar=  1.01003074029517E+05
 cg2d: Sum(rhs),rhsMax =  -4.69943783811634E+01  1.58965651788218E+00
(PID.TID 0000.0001)  ploadbar=  1.01003290886210E+05
 cg2d: Sum(rhs),rhsMax =  -4.71616561981791E+01  1.58302119198376E+00
(PID.TID 0000.0001)  ploadbar=  1.01003507742904E+05
 cg2d: Sum(rhs),rhsMax =  -4.73065226858031E+01  1.57731492130462E+00
(PID.TID 0000.0001)  ploadbar=  1.01003980643882E+05
 cg2d: Sum(rhs),rhsMax =  -4.74208897024194E+01  1.57278463457903E+00
(PID.TID 0000.0001)  ploadbar=  1.01004453544861E+05
 cg2d: Sum(rhs),rhsMax =  -4.75035411716857E+01  1.56944765495106E+00
(PID.TID 0000.0001)  ploadbar=  1.01004926445839E+05
 cg2d: Sum(rhs),rhsMax =  -4.75653866372485E+01  1.56692401077492E+00
(PID.TID 0000.0001)  ploadbar=  1.01005399346818E+05
 cg2d: Sum(rhs),rhsMax =  -4.76189021880661E+01  1.56479102537150E+00
(PID.TID 0000.0001)  ploadbar=  1.01005872247796E+05
 cg2d: Sum(rhs),rhsMax =  -4.76689870387105E+01  1.56288185857208E+00
(PID.TID 0000.0001)  ploadbar=  1.01006345148774E+05
 cg2d: Sum(rhs),rhsMax =  -4.77188836403737E+01  1.56100260069028E+00
(PID.TID 0000.0001)  ploadbar=  1.01007735778799E+05
 cg2d: Sum(rhs),rhsMax =  -4.77686547278245E+01  1.55914779731630E+00
(PID.TID 0000.0001)  ploadbar=  1.01009126408824E+05
 cg2d: Sum(rhs),rhsMax =  -4.78204926286661E+01  1.55723795860321E+00
(PID.TID 0000.0001)  ploadbar=  1.01010517038849E+05
 cg2d: Sum(rhs),rhsMax =  -4.78720482777949E+01  1.55534491787081E+00
(PID.TID 0000.0001)  ploadbar=  1.01011907668874E+05
 cg2d: Sum(rhs),rhsMax =  -4.79266686630458E+01  1.55334804938981E+00
(PID.TID 0000.0001)  ploadbar=  1.01013298298898E+05
 cg2d: Sum(rhs),rhsMax =  -4.79767530504757E+01  1.55148749573755E+00
(PID.TID 0000.0001)  ploadbar=  1.01014688928923E+05
 cg2d: Sum(rhs),rhsMax =  -4.80067002041022E+01  1.55030423808217E+00
(PID.TID 0000.0001)  ploadbar=  1.01016835256053E+05
 cg2d: Sum(rhs),rhsMax =  -4.80309759902568E+01  1.54932729316609E+00
(PID.TID 0000.0001)  ploadbar=  1.01018981583184E+05
 cg2d: Sum(rhs),rhsMax =  -4.80544162214660E+01  1.54839712428789E+00
(PID.TID 0000.0001)  ploadbar=  1.01021127910314E+05
 cg2d: Sum(rhs),rhsMax =  -4.80768601863796E+01  1.54751266845894E+00
(PID.TID 0000.0001)  ploadbar=  1.01023274237444E+05
 cg2d: Sum(rhs),rhsMax =  -4.81003885036378E+01  1.54659782842259E+00
(PID.TID 0000.0001)  ploadbar=  1.01025420564574E+05
 cg2d: Sum(rhs),rhsMax =  -4.81267379369978E+01  1.54559832798058E+00
(PID.TID 0000.0001)  ploadbar=  1.01027566891704E+05
 cg2d: Sum(rhs),rhsMax =  -4.81597542447413E+01  1.54436264609431E+00
(PID.TID 0000.0001)  ploadbar=  1.01029080878060E+05
 cg2d: Sum(rhs),rhsMax =  -4.81971277748981E+01  1.54296018174660E+00
(PID.TID 0000.0001)  ploadbar=  1.01030594864417E+05
 cg2d: Sum(rhs),rhsMax =  -4.82381528029862E+01  1.54140627117758E+00
(PID.TID 0000.0001)  ploadbar=  1.01032108850773E+05
 cg2d: Sum(rhs),rhsMax =  -4.82828078012265E+01  1.53969983702225E+00
(PID.TID 0000.0001)  ploadbar=  1.01033622837129E+05
 cg2d: Sum(rhs),rhsMax =  -4.83306036456779E+01  1.53784977587118E+00
(PID.TID 0000.0001)  ploadbar=  1.01035136823485E+05
 cg2d: Sum(rhs),rhsMax =  -4.83821000755679E+01  1.53583845249223E+00
(PID.TID 0000.0001)  ploadbar=  1.01036650809841E+05
 cg2d: Sum(rhs),rhsMax =  -4.84441317157714E+01  1.53354565477585E+00
(PID.TID 0000.0001)  ploadbar=  1.01038280967635E+05
 cg2d: Sum(rhs),rhsMax =  -4.85114028938946E+01  1.53113895807771E+00
(PID.TID 0000.0001)  ploadbar=  1.01039911125430E+05
 cg2d: Sum(rhs),rhsMax =  -4.85837529890236E+01  1.52862141518900E+00
(PID.TID 0000.0001)  ploadbar=  1.01041541283224E+05
 cg2d: Sum(rhs),rhsMax =  -4.86606775768819E+01  1.52600535810884E+00
(PID.TID 0000.0001)  ploadbar=  1.01043171441019E+05
 cg2d: Sum(rhs),rhsMax =  -4.87414780847620E+01  1.52330624087457E+00
(PID.TID 0000.0001)  ploadbar=  1.01044801598813E+05
 cg2d: Sum(rhs),rhsMax =  -4.88259066394210E+01  1.52052591790387E+00
(PID.TID 0000.0001)  ploadbar=  1.01046431756607E+05
 cg2d: Sum(rhs),rhsMax =  -4.89135433082638E+01  1.51762050228120E+00
(PID.TID 0000.0001)  ploadbar=  1.01047681300825E+05
 cg2d: Sum(rhs),rhsMax =  -4.90018295338043E+01  1.51466956870100E+00
(PID.TID 0000.0001)  ploadbar=  1.01048930845042E+05
 cg2d: Sum(rhs),rhsMax =  -4.90898179873189E+01  1.51169593831002E+00
(PID.TID 0000.0001)  ploadbar=  1.01050180389260E+05
 cg2d: Sum(rhs),rhsMax =  -4.91775518408660E+01  1.50868194262775E+00
(PID.TID 0000.0001)  ploadbar=  1.01051429933477E+05
 cg2d: Sum(rhs),rhsMax =  -4.92654111278885E+01  1.50561240363335E+00
(PID.TID 0000.0001)  ploadbar=  1.01052679477695E+05
 cg2d: Sum(rhs),rhsMax =  -4.93530233916599E+01  1.50249484741307E+00
(PID.TID 0000.0001)  ploadbar=  1.01053929021912E+05
 cg2d: Sum(rhs),rhsMax =  -4.94434019786728E+01  1.49933110127664E+00
(PID.TID 0000.0001)  ploadbar=  1.01055539226437E+05
 cg2d: Sum(rhs),rhsMax =  -4.95370677256133E+01  1.49610324931545E+00
(PID.TID 0000.0001)  ploadbar=  1.01057149430961E+05
 cg2d: Sum(rhs),rhsMax =  -4.96336884385321E+01  1.49282003929324E+00
(PID.TID 0000.0001)  ploadbar=  1.01058759635485E+05
 cg2d: Sum(rhs),rhsMax =  -4.97325236322375E+01  1.48949957687595E+00
(PID.TID 0000.0001)  ploadbar=  1.01060369840010E+05
 cg2d: Sum(rhs),rhsMax =  -4.98328040056243E+01  1.48615796019645E+00
(PID.TID 0000.0001)  ploadbar=  1.01061980044534E+05
 cg2d: Sum(rhs),rhsMax =  -4.99337004739925E+01  1.48280926079020E+00
(PID.TID 0000.0001)  ploadbar=  1.01063590249058E+05
 cg2d: Sum(rhs),rhsMax =  -5.00306916395968E+01  1.47952966826294E+00
(PID.TID 0000.0001)  ploadbar=  1.01065602515062E+05
 cg2d: Sum(rhs),rhsMax =  -5.01234606873572E+01  1.47632190365420E+00
(PID.TID 0000.0001)  ploadbar=  1.01067614781066E+05
 cg2d: Sum(rhs),rhsMax =  -5.02120986406658E+01  1.47317547297876E+00
(PID.TID 0000.0001)  ploadbar=  1.01069627047071E+05
 cg2d: Sum(rhs),rhsMax =  -5.02979501668683E+01  1.47004945836869E+00
(PID.TID 0000.0001)  ploadbar=  1.01071639313075E+05
 cg2d: Sum(rhs),rhsMax =  -5.03809039624832E+01  1.46694507465422E+00
(PID.TID 0000.0001)  ploadbar=  1.01073651579079E+05
 cg2d: Sum(rhs),rhsMax =  -5.04603717379570E+01  1.46387861555512E+00
(PID.TID 0000.0001)  ploadbar=  1.01075663845083E+05
 cg2d: Sum(rhs),rhsMax =  -5.05427850603071E+01  1.46080771532682E+00
(PID.TID 0000.0001)  ploadbar=  1.01078624763073E+05
 cg2d: Sum(rhs),rhsMax =  -5.06281934662688E+01  1.45773028272369E+00
(PID.TID 0000.0001)  ploadbar=  1.01081585681062E+05
 cg2d: Sum(rhs),rhsMax =  -5.07140967894556E+01  1.45471442528720E+00
(PID.TID 0000.0001)  ploadbar=  1.01084546599052E+05
 cg2d: Sum(rhs),rhsMax =  -5.08001720175157E+01  1.45176107739552E+00
(PID.TID 0000.0001)  ploadbar=  1.01087507517042E+05
 cg2d: Sum(rhs),rhsMax =  -5.08857682484940E+01  1.44888208588716E+00
(PID.TID 0000.0001)  ploadbar=  1.01090468435031E+05
 cg2d: Sum(rhs),rhsMax =  -5.09702996994050E+01  1.44608577621631E+00
(PID.TID 0000.0001)  ploadbar=  1.01093429353021E+05
 cg2d: Sum(rhs),rhsMax =  -5.10524705770648E+01  1.44335238820248E+00
(PID.TID 0000.0001)  ploadbar=  1.01094999971839E+05
 cg2d: Sum(rhs),rhsMax =  -5.11321146300702E+01  1.44068260250302E+00
(PID.TID 0000.0001)  ploadbar=  1.01096570590656E+05
 cg2d: Sum(rhs),rhsMax =  -5.12212923137386E+01  1.43773574021187E+00
(PID.TID 0000.0001)  ploadbar=  1.01098141209474E+05
 cg2d: Sum(rhs),rhsMax =  -5.13078592796054E+01  1.43485099757005E+00
(PID.TID 0000.0001)  ploadbar=  1.01099711828292E+05
 cg2d: Sum(rhs),rhsMax =  -5.13911984785674E+01  1.43204158735222E+00
(PID.TID 0000.0001)  ploadbar=  1.01101282447110E+05
 cg2d: Sum(rhs),rhsMax =  -5.14719756712100E+01  1.42928511446727E+00
(PID.TID 0000.0001)  ploadbar=  1.01102853065928E+05
 cg2d: Sum(rhs),rhsMax =  -5.15509971914595E+01  1.42659796013161E+00
(PID.TID 0000.0001)  ploadbar=  1.01104088696930E+05
 cg2d: Sum(rhs),rhsMax =  -5.16305566491868E+01  1.42391406691794E+00
(PID.TID 0000.0001)  ploadbar=  1.01105324327931E+05
 cg2d: Sum(rhs),rhsMax =  -5.17081327711722E+01  1.42130097507172E+00
(PID.TID 0000.0001)  ploadbar=  1.01106559958933E+05
 cg2d: Sum(rhs),rhsMax =  -5.17850266214074E+01  1.41871896650276E+00
(PID.TID 0000.0001)  ploadbar=  1.01107795589934E+05
 cg2d: Sum(rhs),rhsMax =  -5.18613364087361E+01  1.41615919077635E+00
(PID.TID 0000.0001)  ploadbar=  1.01109031220936E+05
 cg2d: Sum(rhs),rhsMax =  -5.19369078772825E+01  1.41362087764833E+00
(PID.TID 0000.0001)  ploadbar=  1.01110266851938E+05
 cg2d: Sum(rhs),rhsMax =  -5.20080568337227E+01  1.41118033570147E+00
(PID.TID 0000.0001)  ploadbar=  1.01111962750336E+05
 cg2d: Sum(rhs),rhsMax =  -5.20742616718091E+01  1.40884772526966E+00
(PID.TID 0000.0001)  ploadbar=  1.01113658648734E+05
 cg2d: Sum(rhs),rhsMax =  -5.21378257591234E+01  1.40655055925933E+00
(PID.TID 0000.0001)  ploadbar=  1.01115354547131E+05
 cg2d: Sum(rhs),rhsMax =  -5.22001592002716E+01  1.40424527703031E+00
(PID.TID 0000.0001)  ploadbar=  1.01117050445529E+05
 cg2d: Sum(rhs),rhsMax =  -5.22612515046572E+01  1.40193043920054E+00
(PID.TID 0000.0001)  ploadbar=  1.01118746343927E+05
 cg2d: Sum(rhs),rhsMax =  -5.23217853325344E+01  1.39958622654418E+00
(PID.TID 0000.0001)  ploadbar=  1.01120442242325E+05
 cg2d: Sum(rhs),rhsMax =  -5.23825771293373E+01  1.39727043526475E+00
(PID.TID 0000.0001)  ploadbar=  1.01122507542328E+05
 cg2d: Sum(rhs),rhsMax =  -5.24447953818051E+01  1.39494853270338E+00
(PID.TID 0000.0001)  ploadbar=  1.01124572842331E+05
 cg2d: Sum(rhs),rhsMax =  -5.25060875966534E+01  1.39267990543899E+00
(PID.TID 0000.0001)  ploadbar=  1.01126638142334E+05
 cg2d: Sum(rhs),rhsMax =  -5.25665113657808E+01  1.39045622305949E+00
(PID.TID 0000.0001)  ploadbar=  1.01128703442338E+05
 cg2d: Sum(rhs),rhsMax =  -5.26256288843516E+01  1.38828086344682E+00
(PID.TID 0000.0001)  ploadbar=  1.01130768742341E+05
 cg2d: Sum(rhs),rhsMax =  -5.26830428088573E+01  1.38615072117554E+00
(PID.TID 0000.0001)  ploadbar=  1.01132834042344E+05
 cg2d: Sum(rhs),rhsMax =  -5.27399423560107E+01  1.38402612795331E+00
(PID.TID 0000.0001)  ploadbar=  1.01134205595920E+05
 cg2d: Sum(rhs),rhsMax =  -5.27965529773549E+01  1.38189637478011E+00
(PID.TID 0000.0001)  ploadbar=  1.01135577149496E+05
 cg2d: Sum(rhs),rhsMax =  -5.28554904814114E+01  1.37968733059854E+00
(PID.TID 0000.0001)  ploadbar=  1.01136948703072E+05
 cg2d: Sum(rhs),rhsMax =  -5.29153136781665E+01  1.37742906628664E+00
(PID.TID 0000.0001)  ploadbar=  1.01138320256649E+05
 cg2d: Sum(rhs),rhsMax =  -5.29758275729841E+01  1.37511882975007E+00
(PID.TID 0000.0001)  ploadbar=  1.01139691810225E+05
 cg2d: Sum(rhs),rhsMax =  -5.30378172675951E+01  1.37273355114276E+00
(PID.TID 0000.0001)  ploadbar=  1.01141063363801E+05
 cg2d: Sum(rhs),rhsMax =  -5.31086204457415E+01  1.37018567760721E+00
(PID.TID 0000.0001)  ploadbar=  1.01142482329036E+05
 cg2d: Sum(rhs),rhsMax =  -5.31883849955169E+01  1.36747134208168E+00
(PID.TID 0000.0001)  ploadbar=  1.01143901294271E+05
 cg2d: Sum(rhs),rhsMax =  -5.32754860924330E+01  1.36463159965359E+00
(PID.TID 0000.0001)  ploadbar=  1.01145320259505E+05
 cg2d: Sum(rhs),rhsMax =  -5.33677176563525E+01  1.36171937999575E+00
(PID.TID 0000.0001)  ploadbar=  1.01146739224740E+05
 cg2d: Sum(rhs),rhsMax =  -5.34651621150211E+01  1.35872979755158E+00
(PID.TID 0000.0001)  ploadbar=  1.01148158189974E+05
 cg2d: Sum(rhs),rhsMax =  -5.35677118250649E+01  1.35566071212977E+00
(PID.TID 0000.0001)  ploadbar=  1.01149577155209E+05
 cg2d: Sum(rhs),rhsMax =  -5.36761099557535E+01  1.35245130051167E+00
(PID.TID 0000.0001)  ploadbar=  1.01149711572316E+05
 cg2d: Sum(rhs),rhsMax =  -5.37902533935106E+01  1.34909989377644E+00
(PID.TID 0000.0001)  ploadbar=  1.01149845989423E+05
 cg2d: Sum(rhs),rhsMax =  -5.39068899006399E+01  1.34567932202200E+00
(PID.TID 0000.0001)  ploadbar=  1.01149980406529E+05
 cg2d: Sum(rhs),rhsMax =  -5.40256523019371E+01  1.34219453890853E+00
(PID.TID 0000.0001)  ploadbar=  1.01150114823636E+05
 cg2d: Sum(rhs),rhsMax =  -5.41462144759005E+01  1.33865338741221E+00
(PID.TID 0000.0001)  ploadbar=  1.01150249240743E+05
 cg2d: Sum(rhs),rhsMax =  -5.42674291817905E+01  1.33508374514484E+00
(PID.TID 0000.0001)  ploadbar=  1.01150383657849E+05
 cg2d: Sum(rhs),rhsMax =  -5.43807790309929E+01  1.33178781566851E+00
(PID.TID 0000.0001)  ploadbar=  1.01150980379183E+05
 cg2d: Sum(rhs),rhsMax =  -5.44970233116964E+01  1.32849937077993E+00
(PID.TID 0000.0001)  ploadbar=  1.01151577100516E+05
 cg2d: Sum(rhs),rhsMax =  -5.46177210910484E+01  1.32517561412753E+00
(PID.TID 0000.0001)  ploadbar=  1.01152173821850E+05
 cg2d: Sum(rhs),rhsMax =  -5.47394269846101E+01  1.32189446555990E+00
(PID.TID 0000.0001)  ploadbar=  1.01152770543183E+05
 cg2d: Sum(rhs),rhsMax =  -5.48616122340804E+01  1.31866485953701E+00
(PID.TID 0000.0001)  ploadbar=  1.01153367264516E+05
 cg2d: Sum(rhs),rhsMax =  -5.49833157757807E+01  1.31550480408035E+00
(PID.TID 0000.0001)  ploadbar=  1.01153963985850E+05
 cg2d: Sum(rhs),rhsMax =  -5.51161059117290E+01  1.31210208345147E+00
(PID.TID 0000.0001)  ploadbar=  1.01154139387446E+05
 cg2d: Sum(rhs),rhsMax =  -5.52506079429886E+01  1.30868075214557E+00
(PID.TID 0000.0001)  ploadbar=  1.01154314789042E+05
 cg2d: Sum(rhs),rhsMax =  -5.53865756332694E+01  1.30524511948494E+00
(PID.TID 0000.0001)  ploadbar=  1.01154490190638E+05
 cg2d: Sum(rhs),rhsMax =  -5.55266363682420E+01  1.30172800722607E+00
(PID.TID 0000.0001)  ploadbar=  1.01154665592234E+05
 cg2d: Sum(rhs),rhsMax =  -5.56703563446098E+01  1.29813738800096E+00
(PID.TID 0000.0001)  ploadbar=  1.01154840993831E+05
 cg2d: Sum(rhs),rhsMax =  -5.58173662981730E+01  1.29448215783401E+00
(PID.TID 0000.0001)  ploadbar=  1.01155016395427E+05
 cg2d: Sum(rhs),rhsMax =  -5.59692376385738E+01  1.29075968981612E+00
(PID.TID 0000.0001)  ploadbar=  1.01155917175552E+05
 cg2d: Sum(rhs),rhsMax =  -5.61227434508732E+01  1.28704394048722E+00
(PID.TID 0000.0001)  ploadbar=  1.01156817955678E+05
 cg2d: Sum(rhs),rhsMax =  -5.62743843105927E+01  1.28340967518718E+00
(PID.TID 0000.0001)  ploadbar=  1.01157718735804E+05
 cg2d: Sum(rhs),rhsMax =  -5.64226336969568E+01  1.27988531649498E+00
(PID.TID 0000.0001)  ploadbar=  1.01158619515929E+05
 cg2d: Sum(rhs),rhsMax =  -5.65676467065711E+01  1.27646149796976E+00
(PID.TID 0000.0001)  ploadbar=  1.01159520296055E+05
 cg2d: Sum(rhs),rhsMax =  -5.67098285992119E+01  1.27312253003437E+00
(PID.TID 0000.0001)  ploadbar=  1.01160421076181E+05
 cg2d: Sum(rhs),rhsMax =  -5.68441761795104E+01  1.26993773520237E+00
(PID.TID 0000.0001)  ploadbar=  1.01159660229993E+05
 cg2d: Sum(rhs),rhsMax =  -5.69767418013979E+01  1.26675910175830E+00
(PID.TID 0000.0001)  ploadbar=  1.01158899383805E+05
 cg2d: Sum(rhs),rhsMax =  -5.71074971729198E+01  1.26358409403983E+00
(PID.TID 0000.0001)  ploadbar=  1.01158138537617E+05
 cg2d: Sum(rhs),rhsMax =  -5.72365051803578E+01  1.26040949281904E+00
(PID.TID 0000.0001)  ploadbar=  1.01157377691429E+05
 cg2d: Sum(rhs),rhsMax =  -5.73637794143295E+01  1.25723193780571E+00
(PID.TID 0000.0001)  ploadbar=  1.01156616845242E+05
 cg2d: Sum(rhs),rhsMax =  -5.74892795927503E+01  1.25405116956367E+00
(PID.TID 0000.0001)  ploadbar=  1.01155855999054E+05
 cg2d: Sum(rhs),rhsMax =  -5.76097930912791E+01  1.25105592317670E+00
(PID.TID 0000.0001)  ploadbar=  1.01154196820837E+05
 cg2d: Sum(rhs),rhsMax =  -5.77316839441237E+01  1.24810635059840E+00
(PID.TID 0000.0001)  ploadbar=  1.01152537642620E+05
 cg2d: Sum(rhs),rhsMax =  -5.78530680435414E+01  1.24524051748486E+00
(PID.TID 0000.0001)  ploadbar=  1.01150878464403E+05
 cg2d: Sum(rhs),rhsMax =  -5.79731150256075E+01  1.24247315132608E+00
(PID.TID 0000.0001)  ploadbar=  1.01149219286187E+05
 cg2d: Sum(rhs),rhsMax =  -5.80916349233945E+01  1.23980170936108E+00
(PID.TID 0000.0001)  ploadbar=  1.01147560107970E+05
 cg2d: Sum(rhs),rhsMax =  -5.82076952332667E+01  1.23723717210426E+00
(PID.TID 0000.0001)  ploadbar=  1.01145900929753E+05
 cg2d: Sum(rhs),rhsMax =  -5.83196783617383E+01  1.23475078868524E+00
(PID.TID 0000.0001)  ploadbar=  1.01145984775287E+05
 cg2d: Sum(rhs),rhsMax =  -5.84219132093867E+01  1.23245774558461E+00
(PID.TID 0000.0001)  ploadbar=  1.01146068620820E+05
 cg2d: Sum(rhs),rhsMax =  -5.85136476250242E+01  1.23036653839311E+00
(PID.TID 0000.0001)  ploadbar=  1.01146152466354E+05
 cg2d: Sum(rhs),rhsMax =  -5.85965642246784E+01  1.22843545270952E+00
(PID.TID 0000.0001)  ploadbar=  1.01146236311888E+05
 cg2d: Sum(rhs),rhsMax =  -5.86701710144941E+01  1.22667030091674E+00
(PID.TID 0000.0001)  ploadbar=  1.01146320157421E+05
 cg2d: Sum(rhs),rhsMax =  -5.87334412311823E+01  1.22508722756325E+00
(PID.TID 0000.0001)  ploadbar=  1.01146404002955E+05
 cg2d: Sum(rhs),rhsMax =  -5.87881953851843E+01  1.22367309516118E+00
(PID.TID 0000.0001)  ploadbar=  1.01147332448759E+05
 cg2d: Sum(rhs),rhsMax =  -5.88316723240604E+01  1.22248209548187E+00
(PID.TID 0000.0001)  ploadbar=  1.01148260894563E+05
 cg2d: Sum(rhs),rhsMax =  -5.88660240440334E+01  1.22146806595303E+00
(PID.TID 0000.0001)  ploadbar=  1.01149189340367E+05
 cg2d: Sum(rhs),rhsMax =  -5.88944861067398E+01  1.22055524901499E+00
(PID.TID 0000.0001)  ploadbar=  1.01150117786171E+05
 cg2d: Sum(rhs),rhsMax =  -5.89186667956643E+01  1.21970605528864E+00
(PID.TID 0000.0001)  ploadbar=  1.01151046231976E+05
 cg2d: Sum(rhs),rhsMax =  -5.89391224816366E+01  1.21889902609254E+00
(PID.TID 0000.0001)  ploadbar=  1.01151974677780E+05
 cg2d: Sum(rhs),rhsMax =  -5.89687763181447E+01  1.21789887919439E+00
(PID.TID 0000.0001)  ploadbar=  1.01152414175913E+05
 cg2d: Sum(rhs),rhsMax =  -5.89948438157550E+01  1.21696527241667E+00
(PID.TID 0000.0001)  ploadbar=  1.01152853674047E+05
 cg2d: Sum(rhs),rhsMax =  -5.90144457029975E+01  1.21615682313267E+00
(PID.TID 0000.0001)  ploadbar=  1.01153293172180E+05
 cg2d: Sum(rhs),rhsMax =  -5.90295104614582E+01  1.21543081622747E+00
(PID.TID 0000.0001)  ploadbar=  1.01153732670314E+05
 cg2d: Sum(rhs),rhsMax =  -5.90398547418410E+01  1.21478775273089E+00
(PID.TID 0000.0001)  ploadbar=  1.01154172168448E+05
 cg2d: Sum(rhs),rhsMax =  -5.90449853279998E+01  1.21423438654367E+00
(PID.TID 0000.0001)  ploadbar=  1.01154611666581E+05
 cg2d: Sum(rhs),rhsMax =  -5.90399851531760E+01  1.21393663196704E+00
(PID.TID 0000.0001)  ploadbar=  1.01155633202438E+05
 cg2d: Sum(rhs),rhsMax =  -5.90314492743082E+01  1.21375519636963E+00
(PID.TID 0000.0001)  ploadbar=  1.01156654738294E+05
 cg2d: Sum(rhs),rhsMax =  -5.90240150444910E+01  1.21359342221278E+00
(PID.TID 0000.0001)  ploadbar=  1.01157676274151E+05
 cg2d: Sum(rhs),rhsMax =  -5.90126039335984E+01  1.21355253104317E+00
(PID.TID 0000.0001)  ploadbar=  1.01158697810007E+05
 cg2d: Sum(rhs),rhsMax =  -5.89955140177011E+01  1.21366249720364E+00
(PID.TID 0000.0001)  ploadbar=  1.01159719345864E+05
 cg2d: Sum(rhs),rhsMax =  -5.89721513223396E+01  1.21392659978663E+00
(PID.TID 0000.0001)  ploadbar=  1.01160740881720E+05
 cg2d: Sum(rhs),rhsMax =  -5.89447638285226E+01  1.21427229086386E+00
(PID.TID 0000.0001)  ploadbar=  1.01160328741133E+05
 cg2d: Sum(rhs),rhsMax =  -5.89119883266841E+01  1.21472448580268E+00
(PID.TID 0000.0001)  ploadbar=  1.01159916600547E+05
 cg2d: Sum(rhs),rhsMax =  -5.88724987141164E+01  1.21530246751001E+00
(PID.TID 0000.0001)  ploadbar=  1.01159504459960E+05
 cg2d: Sum(rhs),rhsMax =  -5.88283545558406E+01  1.21595697207464E+00
(PID.TID 0000.0001)  ploadbar=  1.01159092319373E+05
 cg2d: Sum(rhs),rhsMax =  -5.87816686379464E+01  1.21663796867118E+00
(PID.TID 0000.0001)  ploadbar=  1.01158680178786E+05
 cg2d: Sum(rhs),rhsMax =  -5.87336782697377E+01  1.21731611529172E+00
(PID.TID 0000.0001)  ploadbar=  1.01158268038200E+05
 cg2d: Sum(rhs),rhsMax =  -5.86765753830319E+01  1.21820408960422E+00
(PID.TID 0000.0001)  ploadbar=  1.01157250891005E+05
 cg2d: Sum(rhs),rhsMax =  -5.86193109363337E+01  1.21911424301988E+00
(PID.TID 0000.0001)  ploadbar=  1.01156233743810E+05
 cg2d: Sum(rhs),rhsMax =  -5.85693643713574E+01  1.21988762837798E+00
(PID.TID 0000.0001)  ploadbar=  1.01155216596616E+05
 cg2d: Sum(rhs),rhsMax =  -5.85239742049080E+01  1.22057270858448E+00
(PID.TID 0000.0001)  ploadbar=  1.01154199449421E+05
 cg2d: Sum(rhs),rhsMax =  -5.84844066757068E+01  1.22113698853275E+00
(PID.TID 0000.0001)  ploadbar=  1.01153182302226E+05
 cg2d: Sum(rhs),rhsMax =  -5.84538786255739E+01  1.22150619355790E+00
(PID.TID 0000.0001)  ploadbar=  1.01152165155031E+05
 cg2d: Sum(rhs),rhsMax =  -5.84475016207514E+01  1.22131318919831E+00
(PID.TID 0000.0001)  ploadbar=  1.01151734585887E+05
 cg2d: Sum(rhs),rhsMax =  -5.84609971843129E+01  1.22064396939376E+00
(PID.TID 0000.0001)  ploadbar=  1.01151304016743E+05
 cg2d: Sum(rhs),rhsMax =  -5.80398087639778E+01  1.22904971334168E+00
(PID.TID 0000.0001)  ploadbar=  1.01150873447598E+05
 cg2d: Sum(rhs),rhsMax =  -5.67271024109169E+01  1.25696139627958E+00
(PID.TID 0000.0001)  ploadbar=  1.01150442878454E+05
 cg2d: Sum(rhs),rhsMax =  -5.54718203150504E+01  1.28479202148563E+00
(PID.TID 0000.0001)  ploadbar=  1.01150012309309E+05
 cg2d: Sum(rhs),rhsMax =  -5.42944303559026E+01  1.31195280301758E+00
(PID.TID 0000.0001)  ploadbar=  1.01149581740165E+05
 cg2d: Sum(rhs),rhsMax =  -5.32529952654469E+01  1.33697772548784E+00
(PID.TID 0000.0001)  ploadbar=  1.01149070617488E+05
 cg2d: Sum(rhs),rhsMax =  -5.23296756904809E+01  1.36000344920821E+00
(PID.TID 0000.0001)  ploadbar=  1.01148559494811E+05
 cg2d: Sum(rhs),rhsMax =  -5.16473194707521E+01  1.37747686511241E+00
(PID.TID 0000.0001)  ploadbar=  1.01148048372135E+05
 cg2d: Sum(rhs),rhsMax =  -5.11456261834860E+01  1.39056544235809E+00
(PID.TID 0000.0001)  ploadbar=  1.01147537249458E+05
 cg2d: Sum(rhs),rhsMax =  -5.07424686923559E+01  1.40125877070865E+00
(PID.TID 0000.0001)  ploadbar=  1.01147026126781E+05
 cg2d: Sum(rhs),rhsMax =  -5.03758210378149E+01  1.41116240924986E+00
(PID.TID 0000.0001)  ploadbar=  1.01146515004104E+05
 cg2d: Sum(rhs),rhsMax =  -4.99660246543867E+01  1.42246696409759E+00
(PID.TID 0000.0001)  ploadbar=  1.01145398191749E+05
 cg2d: Sum(rhs),rhsMax =  -4.95036509683178E+01  1.43549815753817E+00
(PID.TID 0000.0001)  ploadbar=  1.01144281379393E+05
 cg2d: Sum(rhs),rhsMax =  -4.89999181467803E+01  1.45000862943618E+00
(PID.TID 0000.0001)  ploadbar=  1.01143164567037E+05
 cg2d: Sum(rhs),rhsMax =  -4.84811696738454E+01  1.46528129466250E+00
(PID.TID 0000.0001)  ploadbar=  1.01142047754681E+05
 cg2d: Sum(rhs),rhsMax =  -4.79388363730752E+01  1.48161571850631E+00
(PID.TID 0000.0001)  ploadbar=  1.01140930942325E+05
 cg2d: Sum(rhs),rhsMax =  -4.74358045687841E+01  1.49708432777414E+00
(PID.TID 0000.0001)  ploadbar=  1.01139814129970E+05
 cg2d: Sum(rhs),rhsMax =  -4.69911275978468E+01  1.51099073296819E+00
(PID.TID 0000.0001)  ploadbar=  1.01139931359417E+05
 cg2d: Sum(rhs),rhsMax =  -4.66274019936063E+01  1.52249607702764E+00
(PID.TID 0000.0001)  ploadbar=  1.01140048588864E+05
 cg2d: Sum(rhs),rhsMax =  -4.63482717754304E+01  1.53135973478669E+00
(PID.TID 0000.0001)  ploadbar=  1.01140165818311E+05
 cg2d: Sum(rhs),rhsMax =  -4.61451655026066E+01  1.53776310878191E+00
(PID.TID 0000.0001)  ploadbar=  1.01140283047758E+05
 cg2d: Sum(rhs),rhsMax =  -4.60060968677031E+01  1.54203562392786E+00
(PID.TID 0000.0001)  ploadbar=  1.01140400277205E+05
 cg2d: Sum(rhs),rhsMax =  -4.59151281433985E+01  1.54466952620585E+00
(PID.TID 0000.0001)  ploadbar=  1.01140517506652E+05
 cg2d: Sum(rhs),rhsMax =  -4.58640307534827E+01  1.54591368747328E+00
(PID.TID 0000.0001)  ploadbar=  1.01140714940362E+05
 cg2d: Sum(rhs),rhsMax =  -4.58241652890062E+01  1.54672273498820E+00
(PID.TID 0000.0001)  ploadbar=  1.01140912374071E+05
 cg2d: Sum(rhs),rhsMax =  -4.57879296501727E+01  1.54734733815604E+00
(PID.TID 0000.0001)  ploadbar=  1.01141109807781E+05
 cg2d: Sum(rhs),rhsMax =  -4.57505957388943E+01  1.54794238984929E+00
(PID.TID 0000.0001)  ploadbar=  1.01141307241490E+05
 cg2d: Sum(rhs),rhsMax =  -4.57109049325505E+01  1.54855038798243E+00
(PID.TID 0000.0001)  ploadbar=  1.01141504675200E+05
 cg2d: Sum(rhs),rhsMax =  -4.56706894575368E+01  1.54910856471995E+00
(PID.TID 0000.0001)  ploadbar=  1.01141702108910E+05
 cg2d: Sum(rhs),rhsMax =  -4.56132663865145E+01  1.55032557675229E+00
(PID.TID 0000.0001)  ploadbar=  1.01141320733737E+05
 cg2d: Sum(rhs),rhsMax =  -4.55391089496011E+01  1.55218486158428E+00
(PID.TID 0000.0001)  ploadbar=  1.01140939358565E+05
 cg2d: Sum(rhs),rhsMax =  -4.54572080875670E+01  1.55438142079197E+00
(PID.TID 0000.0001)  ploadbar=  1.01140557983392E+05
 cg2d: Sum(rhs),rhsMax =  -4.55959267423723E+01  1.54911496731681E+00
(PID.TID 0000.0001)  ploadbar=  1.01140176608219E+05
 cg2d: Sum(rhs),rhsMax =  -4.58342392666392E+01  1.54058171181244E+00
(PID.TID 0000.0001)  ploadbar=  1.01139795233047E+05
 cg2d: Sum(rhs),rhsMax =  -4.61222388446855E+01  1.53053323800276E+00
(PID.TID 0000.0001)  ploadbar=  1.01139413857874E+05
 cg2d: Sum(rhs),rhsMax =  -4.64413228768185E+01  1.51961431923821E+00
(PID.TID 0000.0001)  ploadbar=  1.01138831493154E+05
 cg2d: Sum(rhs),rhsMax =  -4.67873392742516E+01  1.50798605418606E+00
(PID.TID 0000.0001)  ploadbar=  1.01138249128433E+05
 cg2d: Sum(rhs),rhsMax =  -4.71606450544805E+01  1.49566965397059E+00
(PID.TID 0000.0001)  ploadbar=  1.01137666763713E+05
 cg2d: Sum(rhs),rhsMax =  -4.75589069836671E+01  1.48277226347874E+00
(PID.TID 0000.0001)  ploadbar=  1.01137084398992E+05
 cg2d: Sum(rhs),rhsMax =  -4.79971678235746E+01  1.46886450887819E+00
(PID.TID 0000.0001)  ploadbar=  1.01136502034272E+05
 cg2d: Sum(rhs),rhsMax =  -4.85238484722208E+01  1.45255238862500E+00
(PID.TID 0000.0001)  ploadbar=  1.01135919669552E+05
 cg2d: Sum(rhs),rhsMax =  -4.90405489694648E+01  1.43688614709100E+00
(PID.TID 0000.0001)  ploadbar=  1.01135696235600E+05
 cg2d: Sum(rhs),rhsMax =  -4.95682707912150E+01  1.42123085976052E+00
(PID.TID 0000.0001)  ploadbar=  1.01135472801648E+05
 cg2d: Sum(rhs),rhsMax =  -5.01192729195418E+01  1.40524756700803E+00
(PID.TID 0000.0001)  ploadbar=  1.01135249367696E+05
 cg2d: Sum(rhs),rhsMax =  -5.07094185753959E+01  1.38852997815648E+00
(PID.TID 0000.0001)  ploadbar=  1.01135025933744E+05
 cg2d: Sum(rhs),rhsMax =  -5.13483228714871E+01  1.37087741317447E+00
(PID.TID 0000.0001)  ploadbar=  1.01134802499792E+05
 cg2d: Sum(rhs),rhsMax =  -5.20411156162055E+01  1.35223405856010E+00
(PID.TID 0000.0001)  ploadbar=  1.01134579065841E+05
 cg2d: Sum(rhs),rhsMax =  -5.26791853028050E+01  1.33544905245558E+00
(PID.TID 0000.0001)  ploadbar=  1.01133836001613E+05
 cg2d: Sum(rhs),rhsMax =  -5.32688145281391E+01  1.32024336826475E+00
(PID.TID 0000.0001)  ploadbar=  1.01133092937385E+05
 cg2d: Sum(rhs),rhsMax =  -5.38360371528421E+01  1.30588974852952E+00
(PID.TID 0000.0001)  ploadbar=  1.01132349873157E+05
 cg2d: Sum(rhs),rhsMax =  -5.44215177980631E+01  1.29137589379277E+00
(PID.TID 0000.0001)  ploadbar=  1.01131606808929E+05
 cg2d: Sum(rhs),rhsMax =  -5.50700182983932E+01  1.27568159479417E+00
(PID.TID 0000.0001)  ploadbar=  1.01130863744701E+05
 cg2d: Sum(rhs),rhsMax =  -5.58211373493815E+01  1.25800714508873E+00
(PID.TID 0000.0001)  ploadbar=  1.01130120680473E+05
 cg2d: Sum(rhs),rhsMax =  -5.65583515769140E+01  1.24115242287166E+00
(PID.TID 0000.0001)  ploadbar=  1.01129803542803E+05
 cg2d: Sum(rhs),rhsMax =  -5.73534157247701E+01  1.22353731925941E+00
(PID.TID 0000.0001)  ploadbar=  1.01129486405133E+05
 cg2d: Sum(rhs),rhsMax =  -5.81467328651318E+01  1.20647662100628E+00
(PID.TID 0000.0001)  ploadbar=  1.01129169267463E+05
 cg2d: Sum(rhs),rhsMax =  -5.89244336473804E+01  1.19022236778879E+00
(PID.TID 0000.0001)  ploadbar=  1.01128852129794E+05
 cg2d: Sum(rhs),rhsMax =  -5.95699495499188E+01  1.17702614476688E+00
(PID.TID 0000.0001)  ploadbar=  1.01128534992124E+05
 cg2d: Sum(rhs),rhsMax =  -6.00218309221456E+01  1.16788952665749E+00
(PID.TID 0000.0001)  ploadbar=  1.01128217854454E+05
 cg2d: Sum(rhs),rhsMax =  -6.03709981203055E+01  1.16088069438413E+00
(PID.TID 0000.0001)  ploadbar=  1.01127231719532E+05
 cg2d: Sum(rhs),rhsMax =  -6.06508099223703E+01  1.15528851517717E+00
(PID.TID 0000.0001)  ploadbar=  1.01126245584610E+05
 cg2d: Sum(rhs),rhsMax =  -6.07342553581934E+01  1.15347937753842E+00
(PID.TID 0000.0001)  ploadbar=  1.01125259449688E+05
 cg2d: Sum(rhs),rhsMax =  -5.99572196590575E+01  1.16821410298490E+00
(PID.TID 0000.0001)  ploadbar=  1.01124273314766E+05
 cg2d: Sum(rhs),rhsMax =  -5.90838958567204E+01  1.18527126532242E+00
(PID.TID 0000.0001)  ploadbar=  1.01123287179844E+05
 cg2d: Sum(rhs),rhsMax =  -5.81279318805997E+01  1.20455225136824E+00
(PID.TID 0000.0001)  ploadbar=  1.01122301044922E+05
 cg2d: Sum(rhs),rhsMax =  -5.70347765071926E+01  1.22741961337576E+00
(PID.TID 0000.0001)  ploadbar=  1.01122453575512E+05
 cg2d: Sum(rhs),rhsMax =  -5.59316328379885E+01  1.25139790049711E+00
(PID.TID 0000.0001)  ploadbar=  1.01122606106102E+05
 cg2d: Sum(rhs),rhsMax =  -5.48419896358656E+01  1.27601567794516E+00
(PID.TID 0000.0001)  ploadbar=  1.01122758636691E+05
 cg2d: Sum(rhs),rhsMax =  -5.37607675333461E+01  1.30141464018370E+00
(PID.TID 0000.0001)  ploadbar=  1.01122911167281E+05
 cg2d: Sum(rhs),rhsMax =  -5.26944793485888E+01  1.32746309804213E+00
(PID.TID 0000.0001)  ploadbar=  1.01123063697871E+05
 cg2d: Sum(rhs),rhsMax =  -5.16404381557622E+01  1.35424285984184E+00
(PID.TID 0000.0001)  ploadbar=  1.01123216228460E+05
 cg2d: Sum(rhs),rhsMax =  -5.07493727809339E+01  1.37766981148665E+00
(PID.TID 0000.0001)  ploadbar=  1.01122750044224E+05
 cg2d: Sum(rhs),rhsMax =  -5.02004497287723E+01  1.39234776628309E+00
(PID.TID 0000.0001)  ploadbar=  1.01122283859988E+05
 cg2d: Sum(rhs),rhsMax =  -4.97776697394702E+01  1.40375003338484E+00
(PID.TID 0000.0001)  ploadbar=  1.01121817675751E+05
 cg2d: Sum(rhs),rhsMax =  -4.94344569284656E+01  1.41303340880677E+00
(PID.TID 0000.0001)  ploadbar=  1.01121351491515E+05
 cg2d: Sum(rhs),rhsMax =  -4.90183089532152E+01  1.42452409845867E+00
(PID.TID 0000.0001)  ploadbar=  1.01120885307279E+05
 cg2d: Sum(rhs),rhsMax =  -4.86964089611875E+01  1.43339150927232E+00
(PID.TID 0000.0001)  ploadbar=  1.01120419123042E+05
 cg2d: Sum(rhs),rhsMax =  -4.85592246412650E+01  1.43693847533188E+00
(PID.TID 0000.0001)  ploadbar=  1.01121045662023E+05
 cg2d: Sum(rhs),rhsMax =  -4.86342391085465E+01  1.43426237918579E+00
(PID.TID 0000.0001)  ploadbar=  1.01121672201004E+05
 cg2d: Sum(rhs),rhsMax =  -4.87692322843383E+01  1.42987323668818E+00
(PID.TID 0000.0001)  ploadbar=  1.01122298739984E+05
 cg2d: Sum(rhs),rhsMax =  -4.89849354778314E+01  1.42319769527881E+00
(PID.TID 0000.0001)  ploadbar=  1.01122925278965E+05
 cg2d: Sum(rhs),rhsMax =  -4.92252652454844E+01  1.41590637885953E+00
(PID.TID 0000.0001)  ploadbar=  1.01123551817946E+05
 cg2d: Sum(rhs),rhsMax =  -4.94474384508857E+01  1.40922948759049E+00
(PID.TID 0000.0001)  ploadbar=  1.01124178356926E+05
 cg2d: Sum(rhs),rhsMax =  -4.95295052005194E+01  1.40658213956719E+00
(PID.TID 0000.0001)  ploadbar=  1.01124805063512E+05
 cg2d: Sum(rhs),rhsMax =  -4.95964201403651E+01  1.40437256773697E+00
(PID.TID 0000.0001)  ploadbar=  1.01125431770097E+05
 cg2d: Sum(rhs),rhsMax =  -4.96669662113408E+01  1.40206203420360E+00
(PID.TID 0000.0001)  ploadbar=  1.01126058476682E+05
 cg2d: Sum(rhs),rhsMax =  -4.97341344780479E+01  1.39984728088223E+00
(PID.TID 0000.0001)  ploadbar=  1.01126685183268E+05
 cg2d: Sum(rhs),rhsMax =  -4.98048185825596E+01  1.39753042185323E+00
(PID.TID 0000.0001)  ploadbar=  1.01127311889853E+05
 cg2d: Sum(rhs),rhsMax =  -4.98844173004633E+01  1.39495668491390E+00
(PID.TID 0000.0001)  ploadbar=  1.01127938596438E+05
 cg2d: Sum(rhs),rhsMax =  -4.99365799965308E+01  1.39315975657928E+00
(PID.TID 0000.0001)  ploadbar=  1.01128126306179E+05
 cg2d: Sum(rhs),rhsMax =  -5.00264478331778E+01  1.39031563311150E+00
(PID.TID 0000.0001)  ploadbar=  1.01128314015919E+05
 cg2d: Sum(rhs),rhsMax =  -5.01846019868609E+01  1.38558837805844E+00
(PID.TID 0000.0001)  ploadbar=  1.01128501725659E+05
 cg2d: Sum(rhs),rhsMax =  -5.04402547555027E+01  1.37821106662176E+00
(PID.TID 0000.0001)  ploadbar=  1.01128689435399E+05
 cg2d: Sum(rhs),rhsMax =  -5.08220376930564E+01  1.36749204615118E+00
(PID.TID 0000.0001)  ploadbar=  1.01128877145140E+05
 cg2d: Sum(rhs),rhsMax =  -5.13553343402703E+01  1.35291129793806E+00
(PID.TID 0000.0001)  ploadbar=  1.01129064854880E+05
 cg2d: Sum(rhs),rhsMax =  -5.19289628844457E+01  1.33755359678836E+00
(PID.TID 0000.0001)  ploadbar=  1.01129288456005E+05
 cg2d: Sum(rhs),rhsMax =  -5.25297912139785E+01  1.32180923376448E+00
(PID.TID 0000.0001)  ploadbar=  1.01129512057130E+05
 cg2d: Sum(rhs),rhsMax =  -5.31154047985696E+01  1.30675770931307E+00
(PID.TID 0000.0001)  ploadbar=  1.01129735658255E+05
 cg2d: Sum(rhs),rhsMax =  -5.36845195368182E+01  1.29239236768267E+00
(PID.TID 0000.0001)  ploadbar=  1.01129959259380E+05
 cg2d: Sum(rhs),rhsMax =  -5.42526607916773E+01  1.27830968955490E+00
(PID.TID 0000.0001)  ploadbar=  1.01130182860506E+05
 cg2d: Sum(rhs),rhsMax =  -5.48395432475426E+01  1.26404388636588E+00
(PID.TID 0000.0001)  ploadbar=  1.01130406461631E+05
 cg2d: Sum(rhs),rhsMax =  -5.56495496604466E+01  1.24516448442922E+00
(PID.TID 0000.0001)  ploadbar=  1.01130340233189E+05
 cg2d: Sum(rhs),rhsMax =  -5.64359979997539E+01  1.22742967582988E+00
(PID.TID 0000.0001)  ploadbar=  1.01130274004746E+05
 cg2d: Sum(rhs),rhsMax =  -5.71602076591729E+01  1.21158660121551E+00
(PID.TID 0000.0001)  ploadbar=  1.01130207776304E+05
 cg2d: Sum(rhs),rhsMax =  -5.77221083098057E+01  1.19958568506898E+00
(PID.TID 0000.0001)  ploadbar=  1.01130141547862E+05
 cg2d: Sum(rhs),rhsMax =  -5.81453770023871E+01  1.19072652913216E+00
(PID.TID 0000.0001)  ploadbar=  1.01130075319419E+05
 cg2d: Sum(rhs),rhsMax =  -5.84756938335624E+01  1.18394662598469E+00
(PID.TID 0000.0001)  ploadbar=  1.01130009090977E+05
 cg2d: Sum(rhs),rhsMax =  -5.86934480874190E+01  1.17948056206430E+00
(PID.TID 0000.0001)  ploadbar=  1.01129859640716E+05
 cg2d: Sum(rhs),rhsMax =  -5.89144226337915E+01  1.17495743751312E+00
(PID.TID 0000.0001)  ploadbar=  1.01129710190454E+05
 cg2d: Sum(rhs),rhsMax =  -5.91185597656264E+01  1.17077370836449E+00
(PID.TID 0000.0001)  ploadbar=  1.01129560740193E+05
 cg2d: Sum(rhs),rhsMax =  -5.93134343622755E+01  1.16677267704629E+00
(PID.TID 0000.0001)  ploadbar=  1.01129411289932E+05
 cg2d: Sum(rhs),rhsMax =  -5.94868921236853E+01  1.16318680358909E+00
(PID.TID 0000.0001)  ploadbar=  1.01129261839671E+05
 cg2d: Sum(rhs),rhsMax =  -5.96237127006487E+01  1.16030205371594E+00
(PID.TID 0000.0001)  ploadbar=  1.01129112389409E+05
 cg2d: Sum(rhs),rhsMax =  -5.95377414279790E+01  1.16176313003215E+00
(PID.TID 0000.0001)  ploadbar=  1.01129549914557E+05
 cg2d: Sum(rhs),rhsMax =  -5.94857008970654E+01  1.16256470529610E+00
(PID.TID 0000.0001)  ploadbar=  1.01129987439705E+05
 cg2d: Sum(rhs),rhsMax =  -5.94565828942745E+01  1.16291710390916E+00
(PID.TID 0000.0001)  ploadbar=  1.01130424964853E+05
 cg2d: Sum(rhs),rhsMax =  -5.94148266574370E+01  1.16351044087914E+00
(PID.TID 0000.0001)  ploadbar=  1.01130862490000E+05
 cg2d: Sum(rhs),rhsMax =  -5.93761577040937E+01  1.16403283880829E+00
(PID.TID 0000.0001)  ploadbar=  1.01131300015148E+05
 cg2d: Sum(rhs),rhsMax =  -5.94132818077722E+01  1.16305567797707E+00
(PID.TID 0000.0001)  ploadbar=  1.01131737540296E+05
 cg2d: Sum(rhs),rhsMax =  -5.96195099069785E+01  1.15877039984443E+00
(PID.TID 0000.0001)  ploadbar=  1.01130988179612E+05
 cg2d: Sum(rhs),rhsMax =  -5.98844593003659E+01  1.15336969025206E+00
(PID.TID 0000.0001)  ploadbar=  1.01130238818927E+05
 cg2d: Sum(rhs),rhsMax =  -6.02016793617367E+01  1.14700467058030E+00
(PID.TID 0000.0001)  ploadbar=  1.01129489458243E+05
 cg2d: Sum(rhs),rhsMax =  -6.05534553904134E+01  1.14004098238216E+00
(PID.TID 0000.0001)  ploadbar=  1.01128740097559E+05
 cg2d: Sum(rhs),rhsMax =  -6.09205105734194E+01  1.13286018113040E+00
(PID.TID 0000.0001)  ploadbar=  1.01127990736875E+05
 cg2d: Sum(rhs),rhsMax =  -6.11235513863618E+01  1.12877263138726E+00
(PID.TID 0000.0001)  ploadbar=  1.01127241376190E+05
 cg2d: Sum(rhs),rhsMax =  -6.14542042951072E+01  1.12241564156236E+00
(PID.TID 0000.0001)  ploadbar=  1.01125499179574E+05
 cg2d: Sum(rhs),rhsMax =  -6.18553932972944E+01  1.11488698616613E+00
(PID.TID 0000.0001)  ploadbar=  1.01123756982958E+05
 cg2d: Sum(rhs),rhsMax =  -6.23427523221002E+01  1.10595641028180E+00
(PID.TID 0000.0001)  ploadbar=  1.01122014786341E+05
 cg2d: Sum(rhs),rhsMax =  -6.29343329263382E+01  1.09537785657946E+00
(PID.TID 0000.0001)  ploadbar=  1.01120272589725E+05
 cg2d: Sum(rhs),rhsMax =  -6.31955800840970E+01  1.09069846759902E+00
(PID.TID 0000.0001)  ploadbar=  1.01118530393108E+05
 cg2d: Sum(rhs),rhsMax =  -6.32944110454289E+01  1.08887272351504E+00
(PID.TID 0000.0001)  ploadbar=  1.01116788196492E+05
 cg2d: Sum(rhs),rhsMax =  -6.34010073317659E+01  1.08691503173564E+00
(PID.TID 0000.0001)  ploadbar=  1.01116852702411E+05
 cg2d: Sum(rhs),rhsMax =  -6.35099401189671E+01  1.08491769411154E+00
(PID.TID 0000.0001)  ploadbar=  1.01116917208330E+05
 cg2d: Sum(rhs),rhsMax =  -6.36147062155603E+01  1.08299020795738E+00
(PID.TID 0000.0001)  ploadbar=  1.01116981714248E+05
 cg2d: Sum(rhs),rhsMax =  -6.37147705655344E+01  1.08113836820603E+00
(PID.TID 0000.0001)  ploadbar=  1.01117046220167E+05
 cg2d: Sum(rhs),rhsMax =  -6.38083876760116E+01  1.07938767104869E+00
(PID.TID 0000.0001)  ploadbar=  1.01117110726086E+05
 cg2d: Sum(rhs),rhsMax =  -6.38948828641163E+01  1.07774476856569E+00
(PID.TID 0000.0001)  ploadbar=  1.01117175232005E+05
 cg2d: Sum(rhs),rhsMax =  -6.39807642777245E+01  1.07613531580423E+00
(PID.TID 0000.0001)  ploadbar=  1.01118487521576E+05
 cg2d: Sum(rhs),rhsMax =  -6.40737646949187E+01  1.07442681101595E+00
(PID.TID 0000.0001)  ploadbar=  1.01119799811146E+05
 cg2d: Sum(rhs),rhsMax =  -6.41617537284802E+01  1.07282094612758E+00
(PID.TID 0000.0001)  ploadbar=  1.01121112100717E+05
 cg2d: Sum(rhs),rhsMax =  -6.42479120233579E+01  1.07126259444872E+00
(PID.TID 0000.0001)  ploadbar=  1.01122424390288E+05
 cg2d: Sum(rhs),rhsMax =  -6.43303866179524E+01  1.06977951340979E+00
(PID.TID 0000.0001)  ploadbar=  1.01123736679858E+05
 cg2d: Sum(rhs),rhsMax =  -6.44043323148450E+01  1.06844460348559E+00
(PID.TID 0000.0001)  ploadbar=  1.01125048969429E+05
 cg2d: Sum(rhs),rhsMax =  -6.44763771036693E+01  1.06711504721051E+00
(PID.TID 0000.0001)  ploadbar=  1.01125769583376E+05
 cg2d: Sum(rhs),rhsMax =  -6.45562765936925E+01  1.06562856214550E+00
(PID.TID 0000.0001)  ploadbar=  1.01126490197322E+05
 cg2d: Sum(rhs),rhsMax =  -6.46403854581218E+01  1.06404444429741E+00
(PID.TID 0000.0001)  ploadbar=  1.01127210811269E+05
 cg2d: Sum(rhs),rhsMax =  -6.47289930350925E+01  1.06235710123081E+00
(PID.TID 0000.0001)  ploadbar=  1.01127931425216E+05
 cg2d: Sum(rhs),rhsMax =  -6.48211062025213E+01  1.06058202186517E+00
(PID.TID 0000.0001)  ploadbar=  1.01128652039162E+05
 cg2d: Sum(rhs),rhsMax =  -6.49142625343794E+01  1.05875774986145E+00
(PID.TID 0000.0001)  ploadbar=  1.01129372653109E+05
 cg2d: Sum(rhs),rhsMax =  -6.50525794142303E+01  1.05626823765696E+00
(PID.TID 0000.0001)  ploadbar=  1.01129733617350E+05
 cg2d: Sum(rhs),rhsMax =  -6.52012808331323E+01  1.05368225942967E+00
(PID.TID 0000.0001)  ploadbar=  1.01130094581592E+05
 cg2d: Sum(rhs),rhsMax =  -6.53667995683744E+01  1.05089686556447E+00
(PID.TID 0000.0001)  ploadbar=  1.01130455545833E+05
 cg2d: Sum(rhs),rhsMax =  -6.55430307959463E+01  1.04801106911139E+00
(PID.TID 0000.0001)  ploadbar=  1.01130816510075E+05
 cg2d: Sum(rhs),rhsMax =  -6.57221536996017E+01  1.04514906118696E+00
(PID.TID 0000.0001)  ploadbar=  1.01131177474317E+05
 cg2d: Sum(rhs),rhsMax =  -6.58978810999011E+01  1.04240864831032E+00
(PID.TID 0000.0001)  ploadbar=  1.01131538438558E+05
 cg2d: Sum(rhs),rhsMax =  -6.60461727297193E+01  1.04011189810795E+00
(PID.TID 0000.0001)  ploadbar=  1.01131894109103E+05
 cg2d: Sum(rhs),rhsMax =  -6.61880967511284E+01  1.03791901093567E+00
(PID.TID 0000.0001)  ploadbar=  1.01132249779648E+05
 cg2d: Sum(rhs),rhsMax =  -6.63401596205520E+01  1.03556962442702E+00
(PID.TID 0000.0001)  ploadbar=  1.01132605450194E+05
 cg2d: Sum(rhs),rhsMax =  -6.64969535749831E+01  1.03314643958697E+00
(PID.TID 0000.0001)  ploadbar=  1.01132961120739E+05
 cg2d: Sum(rhs),rhsMax =  -6.66596385954019E+01  1.03062723335235E+00
(PID.TID 0000.0001)  ploadbar=  1.01133316791284E+05
 cg2d: Sum(rhs),rhsMax =  -6.68330824807219E+01  1.02793510041226E+00
(PID.TID 0000.0001)  ploadbar=  1.01133672461830E+05
 cg2d: Sum(rhs),rhsMax =  -6.70923669458330E+01  1.02395985589385E+00
(PID.TID 0000.0001)  ploadbar=  1.01134885946353E+05
 cg2d: Sum(rhs),rhsMax =  -6.73635959771447E+01  1.01984707296582E+00
(PID.TID 0000.0001)  ploadbar=  1.01136099430877E+05
 cg2d: Sum(rhs),rhsMax =  -6.76458799409687E+01  1.01560739414653E+00
(PID.TID 0000.0001)  ploadbar=  1.01137312915400E+05
 cg2d: Sum(rhs),rhsMax =  -6.79471762002502E+01  1.01112080204856E+00
(PID.TID 0000.0001)  ploadbar=  1.01138526399924E+05
 cg2d: Sum(rhs),rhsMax =  -6.82735434312641E+01  1.00630182926956E+00
(PID.TID 0000.0001)  ploadbar=  1.01139739884447E+05
 cg2d: Sum(rhs),rhsMax =  -6.86361251082004E+01  1.00099402807097E+00
(PID.TID 0000.0001)  ploadbar=  1.01140953368971E+05
 cg2d: Sum(rhs),rhsMax =  -6.89437386196778E+01  9.96482255441382E-01
(PID.TID 0000.0001)  ploadbar=  1.01140354532123E+05
 cg2d: Sum(rhs),rhsMax =  -6.92525881683143E+01  9.91937843682506E-01
(PID.TID 0000.0001)  ploadbar=  1.01139755695275E+05
 cg2d: Sum(rhs),rhsMax =  -6.95589860519884E+01  9.87412877077141E-01
(PID.TID 0000.0001)  ploadbar=  1.01139156858427E+05
 cg2d: Sum(rhs),rhsMax =  -6.98519108827810E+01  9.83060393062386E-01
(PID.TID 0000.0001)  ploadbar=  1.01138558021579E+05
 cg2d: Sum(rhs),rhsMax =  -7.01337004603383E+01  9.78841443552228E-01
(PID.TID 0000.0001)  ploadbar=  1.01137959184731E+05
 cg2d: Sum(rhs),rhsMax =  -7.04038641570422E+01  9.74758949816068E-01
(PID.TID 0000.0001)  ploadbar=  1.01137360347884E+05
 cg2d: Sum(rhs),rhsMax =  -7.05989072951214E+01  9.71770126217625E-01
(PID.TID 0000.0001)  ploadbar=  1.01137710124583E+05
 cg2d: Sum(rhs),rhsMax =  -7.07842250465488E+01  9.68958252350401E-01
(PID.TID 0000.0001)  ploadbar=  1.01138059901282E+05
 cg2d: Sum(rhs),rhsMax =  -7.09811760774192E+01  9.66026830232692E-01
(PID.TID 0000.0001)  ploadbar=  1.01138409677981E+05
 cg2d: Sum(rhs),rhsMax =  -7.11781509032396E+01  9.63131617125188E-01
(PID.TID 0000.0001)  ploadbar=  1.01138759454680E+05
 cg2d: Sum(rhs),rhsMax =  -7.13709163059739E+01  9.60327359164617E-01
(PID.TID 0000.0001)  ploadbar=  1.01139109231379E+05
 cg2d: Sum(rhs),rhsMax =  -7.15542252431845E+01  9.57680034298101E-01
(PID.TID 0000.0001)  ploadbar=  1.01139459008078E+05
 cg2d: Sum(rhs),rhsMax =  -7.17068444436143E+01  9.55465124018166E-01
(PID.TID 0000.0001)  ploadbar=  1.01139039124933E+05
 cg2d: Sum(rhs),rhsMax =  -7.18237678514049E+01  9.53740178714074E-01
(PID.TID 0000.0001)  ploadbar=  1.01138619241788E+05
 cg2d: Sum(rhs),rhsMax =  -7.18971259187231E+01  9.52602558691375E-01
(PID.TID 0000.0001)  ploadbar=  1.01138199358643E+05
 cg2d: Sum(rhs),rhsMax =  -7.19452119254784E+01  9.51805730470317E-01
(PID.TID 0000.0001)  ploadbar=  1.01137779475498E+05
 cg2d: Sum(rhs),rhsMax =  -7.19749165269591E+01  9.51255931051299E-01
(PID.TID 0000.0001)  ploadbar=  1.01137359592353E+05
 cg2d: Sum(rhs),rhsMax =  -7.19877086872836E+01  9.50931452236927E-01
(PID.TID 0000.0001)  ploadbar=  1.01136939709208E+05
 cg2d: Sum(rhs),rhsMax =  -7.20663596685913E+01  9.49745993503584E-01
(PID.TID 0000.0001)  ploadbar=  1.01138474762085E+05
 cg2d: Sum(rhs),rhsMax =  -7.21683710671819E+01  9.48259582337735E-01
(PID.TID 0000.0001)  ploadbar=  1.01140009814961E+05
 cg2d: Sum(rhs),rhsMax =  -7.22807693050210E+01  9.46639636999015E-01
(PID.TID 0000.0001)  ploadbar=  1.01141544867837E+05
 cg2d: Sum(rhs),rhsMax =  -7.24098765690042E+01  9.44801658454526E-01
(PID.TID 0000.0001)  ploadbar=  1.01143079920713E+05
 cg2d: Sum(rhs),rhsMax =  -7.25534119390669E+01  9.42776457686877E-01
(PID.TID 0000.0001)  ploadbar=  1.01144614973589E+05
 cg2d: Sum(rhs),rhsMax =  -7.27081412256191E+01  9.40606337857751E-01
(PID.TID 0000.0001)  ploadbar=  1.01146150026466E+05
 cg2d: Sum(rhs),rhsMax =  -7.29415766672911E+01  9.37410862953793E-01
(PID.TID 0000.0001)  ploadbar=  1.01145852031405E+05
 cg2d: Sum(rhs),rhsMax =  -7.32038427207278E+01  9.33845501424120E-01
(PID.TID 0000.0001)  ploadbar=  1.01145554036344E+05
 cg2d: Sum(rhs),rhsMax =  -7.35013286104441E+01  9.29837070636807E-01
(PID.TID 0000.0001)  ploadbar=  1.01145256041283E+05
 cg2d: Sum(rhs),rhsMax =  -7.38464077096833E+01  9.25240346868595E-01
(PID.TID 0000.0001)  ploadbar=  1.01144958046222E+05
 cg2d: Sum(rhs),rhsMax =  -7.42509073139138E+01  9.19925529489534E-01
(PID.TID 0000.0001)  ploadbar=  1.01144660051161E+05
 cg2d: Sum(rhs),rhsMax =  -7.47274336775989E+01  9.13761427070178E-01
(PID.TID 0000.0001)  ploadbar=  1.01144362056100E+05
 cg2d: Sum(rhs),rhsMax =  -7.52034924189944E+01  9.07719348818887E-01
(PID.TID 0000.0001)  ploadbar=  1.01144043623650E+05
 cg2d: Sum(rhs),rhsMax =  -7.57286262332418E+01  9.01205721185394E-01
(PID.TID 0000.0001)  ploadbar=  1.01143725191201E+05
 cg2d: Sum(rhs),rhsMax =  -7.43221667191786E+01  9.18072729302222E-01
(PID.TID 0000.0001)  ploadbar=  1.01143406758752E+05
 cg2d: Sum(rhs),rhsMax =  -7.11373968328367E+01  9.59014355548166E-01
(PID.TID 0000.0001)  ploadbar=  1.01143088326303E+05
 cg2d: Sum(rhs),rhsMax =  -6.81547355903623E+01  1.00085020836896E+00
(PID.TID 0000.0001)  ploadbar=  1.01142769893853E+05
 cg2d: Sum(rhs),rhsMax =  -6.54329508250985E+01  1.04237218198622E+00
(PID.TID 0000.0001)  ploadbar=  1.01142451461404E+05
 cg2d: Sum(rhs),rhsMax =  -6.32123430020789E+01  1.07890791595765E+00
(PID.TID 0000.0001)  ploadbar=  1.01140919505926E+05
 cg2d: Sum(rhs),rhsMax =  -6.13849546980724E+01  1.11097241761527E+00
(PID.TID 0000.0001)  ploadbar=  1.01139387550449E+05
 cg2d: Sum(rhs),rhsMax =  -5.98768268802843E+01  1.13892831637768E+00
(PID.TID 0000.0001)  ploadbar=  1.01137855594971E+05
 cg2d: Sum(rhs),rhsMax =  -5.86878799257424E+01  1.16200261514956E+00
(PID.TID 0000.0001)  ploadbar=  1.01136323639493E+05
 cg2d: Sum(rhs),rhsMax =  -5.78277264084552E+01  1.17931477226649E+00
(PID.TID 0000.0001)  ploadbar=  1.01134791684015E+05
 cg2d: Sum(rhs),rhsMax =  -5.72525352931048E+01  1.19121615420385E+00
(PID.TID 0000.0001)  ploadbar=  1.01133259728538E+05
 cg2d: Sum(rhs),rhsMax =  -5.68660441851597E+01  1.19936293654634E+00
(PID.TID 0000.0001)  ploadbar=  1.01131319470125E+05
 cg2d: Sum(rhs),rhsMax =  -5.65303887115189E+01  1.20652652891637E+00
(PID.TID 0000.0001)  ploadbar=  1.01129379211712E+05
 cg2d: Sum(rhs),rhsMax =  -5.62248241112247E+01  1.21311123873560E+00
(PID.TID 0000.0001)  ploadbar=  1.01127438953299E+05
 cg2d: Sum(rhs),rhsMax =  -5.59441867013210E+01  1.21920701179708E+00
(PID.TID 0000.0001)  ploadbar=  1.01125498694887E+05
 cg2d: Sum(rhs),rhsMax =  -5.56975144393722E+01  1.22459492782056E+00
(PID.TID 0000.0001)  ploadbar=  1.01123558436474E+05
 cg2d: Sum(rhs),rhsMax =  -5.54993452932550E+01  1.22893065733790E+00
(PID.TID 0000.0001)  ploadbar=  1.01121618178061E+05
 cg2d: Sum(rhs),rhsMax =  -5.53326789131555E+01  1.23255905899473E+00
(PID.TID 0000.0001)  ploadbar=  1.01119780079373E+05
 cg2d: Sum(rhs),rhsMax =  -5.52330864064364E+01  1.23466985735636E+00
(PID.TID 0000.0001)  ploadbar=  1.01117941980685E+05
 cg2d: Sum(rhs),rhsMax =  -5.51887173704934E+01  1.23551127627986E+00
(PID.TID 0000.0001)  ploadbar=  1.01116103881996E+05
 cg2d: Sum(rhs),rhsMax =  -5.51811612032173E+01  1.23548735791510E+00
(PID.TID 0000.0001)  ploadbar=  1.01114265783308E+05
 cg2d: Sum(rhs),rhsMax =  -5.51912677365775E+01  1.23501939211443E+00
(PID.TID 0000.0001)  ploadbar=  1.01112427684620E+05
 cg2d: Sum(rhs),rhsMax =  -5.51954099744042E+01  1.23463587011735E+00
(PID.TID 0000.0001)  ploadbar=  1.01110589585931E+05
 cg2d: Sum(rhs),rhsMax =  -5.51443793841920E+01  1.23556226331922E+00
(PID.TID 0000.0001)  ploadbar=  1.01109603580876E+05
 cg2d: Sum(rhs),rhsMax =  -5.50771422823707E+01  1.23692677295516E+00
(PID.TID 0000.0001)  ploadbar=  1.01108617575820E+05
 cg2d: Sum(rhs),rhsMax =  -5.50634150922844E+01  1.23716068100408E+00
(PID.TID 0000.0001)  ploadbar=  1.01107631570765E+05
 cg2d: Sum(rhs),rhsMax =  -5.50919508820876E+01  1.23651095844221E+00
(PID.TID 0000.0001)  ploadbar=  1.01106645565709E+05
 cg2d: Sum(rhs),rhsMax =  -5.51640088670544E+01  1.23494818113631E+00
(PID.TID 0000.0001)  ploadbar=  1.01105659560653E+05
 cg2d: Sum(rhs),rhsMax =  -5.52970636067636E+01  1.23208771002976E+00
(PID.TID 0000.0001)  ploadbar=  1.01104673555598E+05
 cg2d: Sum(rhs),rhsMax =  -5.54639034908542E+01  1.22847840363737E+00
(PID.TID 0000.0001)  ploadbar=  1.01103958698674E+05
 cg2d: Sum(rhs),rhsMax =  -5.56802097530360E+01  1.22378462876889E+00
(PID.TID 0000.0001)  ploadbar=  1.01103243841751E+05
 cg2d: Sum(rhs),rhsMax =  -5.59492981035237E+01  1.21795789198088E+00
(PID.TID 0000.0001)  ploadbar=  1.01102528984827E+05
 cg2d: Sum(rhs),rhsMax =  -5.62891087685832E+01  1.21064205519265E+00
(PID.TID 0000.0001)  ploadbar=  1.01101814127903E+05
 cg2d: Sum(rhs),rhsMax =  -5.67099308989403E+01  1.20166887405199E+00
(PID.TID 0000.0001)  ploadbar=  1.01101099270980E+05
 cg2d: Sum(rhs),rhsMax =  -5.72077637639872E+01  1.19119357851638E+00
(PID.TID 0000.0001)  ploadbar=  1.01100384414056E+05
 cg2d: Sum(rhs),rhsMax =  -5.77533106542131E+01  1.17990202482787E+00
(PID.TID 0000.0001)  ploadbar=  1.01098876136126E+05
 cg2d: Sum(rhs),rhsMax =  -5.83797036506391E+01  1.16717691549872E+00
(PID.TID 0000.0001)  ploadbar=  1.01097367858196E+05
 cg2d: Sum(rhs),rhsMax =  -5.90598154900320E+01  1.15364033325035E+00
(PID.TID 0000.0001)  ploadbar=  1.01095859580266E+05
 cg2d: Sum(rhs),rhsMax =  -5.98100566630903E+01  1.13904036861687E+00
(PID.TID 0000.0001)  ploadbar=  1.01094351302336E+05
 cg2d: Sum(rhs),rhsMax =  -6.06411488722152E+01  1.12326611036341E+00
(PID.TID 0000.0001)  ploadbar=  1.01092843024406E+05
 cg2d: Sum(rhs),rhsMax =  -6.03155188989026E+01  1.12912705088393E+00
(PID.TID 0000.0001)  ploadbar=  1.01091334746476E+05
 cg2d: Sum(rhs),rhsMax =  -5.91728829583674E+01  1.15069015062640E+00
(PID.TID 0000.0001)  ploadbar=  1.01090510690710E+05
 cg2d: Sum(rhs),rhsMax =  -5.80166500928206E+01  1.17334276024875E+00
(PID.TID 0000.0001)  ploadbar=  1.01089686634944E+05
 cg2d: Sum(rhs),rhsMax =  -5.68627356909308E+01  1.19683143904814E+00
(PID.TID 0000.0001)  ploadbar=  1.01088862579179E+05
 cg2d: Sum(rhs),rhsMax =  -5.57277574603548E+01  1.22083525326046E+00
(PID.TID 0000.0001)  ploadbar=  1.01088038523413E+05
 cg2d: Sum(rhs),rhsMax =  -5.46210899276076E+01  1.24514250059075E+00
(PID.TID 0000.0001)  ploadbar=  1.01087214467647E+05
 cg2d: Sum(rhs),rhsMax =  -5.35550038779275E+01  1.26944140971070E+00
(PID.TID 0000.0001)  ploadbar=  1.01086390411881E+05
 cg2d: Sum(rhs),rhsMax =  -5.25885689041599E+01  1.29235166986846E+00
(PID.TID 0000.0001)  ploadbar=  1.01085996581884E+05
 cg2d: Sum(rhs),rhsMax =  -5.17139777351548E+01  1.31385804761010E+00
(PID.TID 0000.0001)  ploadbar=  1.01085602751887E+05
 cg2d: Sum(rhs),rhsMax =  -5.09349251793779E+01  1.33366662580698E+00
(PID.TID 0000.0001)  ploadbar=  1.01085208921889E+05
 cg2d: Sum(rhs),rhsMax =  -5.02414443855862E+01  1.35184648950970E+00
(PID.TID 0000.0001)  ploadbar=  1.01084815091892E+05
 cg2d: Sum(rhs),rhsMax =  -4.96196199921204E+01  1.36861063151287E+00
(PID.TID 0000.0001)  ploadbar=  1.01084421261895E+05
 cg2d: Sum(rhs),rhsMax =  -4.90546346036001E+01  1.38424113936551E+00
(PID.TID 0000.0001)  ploadbar=  1.01084027431897E+05
 cg2d: Sum(rhs),rhsMax =  -4.85071007052545E+01  1.39974236258236E+00
(PID.TID 0000.0001)  ploadbar=  1.01083930055933E+05
 cg2d: Sum(rhs),rhsMax =  -4.79870366429364E+01  1.41479200285411E+00
(PID.TID 0000.0001)  ploadbar=  1.01083832679969E+05
 cg2d: Sum(rhs),rhsMax =  -4.75009863768751E+01  1.42915084560061E+00
(PID.TID 0000.0001)  ploadbar=  1.01083735304004E+05
 cg2d: Sum(rhs),rhsMax =  -4.70405713393276E+01  1.44302152571147E+00
(PID.TID 0000.0001)  ploadbar=  1.01083637928040E+05
 cg2d: Sum(rhs),rhsMax =  -4.66011522157479E+01  1.45650873448554E+00
(PID.TID 0000.0001)  ploadbar=  1.01083540552076E+05
 cg2d: Sum(rhs),rhsMax =  -4.61799141586299E+01  1.46966855984911E+00
(PID.TID 0000.0001)  ploadbar=  1.01083443176111E+05
 cg2d: Sum(rhs),rhsMax =  -4.58041621055492E+01  1.48158081685086E+00
(PID.TID 0000.0001)  ploadbar=  1.01083004729416E+05
 cg2d: Sum(rhs),rhsMax =  -4.54589638094760E+01  1.49266347432043E+00
(PID.TID 0000.0001)  ploadbar=  1.01082566282721E+05
 cg2d: Sum(rhs),rhsMax =  -4.51444054021765E+01  1.50286819894444E+00
(PID.TID 0000.0001)  ploadbar=  1.01082127836026E+05
 cg2d: Sum(rhs),rhsMax =  -4.48627216006156E+01  1.51207559351040E+00
(PID.TID 0000.0001)  ploadbar=  1.01081689389330E+05
 cg2d: Sum(rhs),rhsMax =  -4.46124440206843E+01  1.52029143110710E+00
(PID.TID 0000.0001)  ploadbar=  1.01081250942635E+05
 cg2d: Sum(rhs),rhsMax =  -4.43912778275436E+01  1.52755675696682E+00
(PID.TID 0000.0001)  ploadbar=  1.01080812495940E+05
 cg2d: Sum(rhs),rhsMax =  -4.41774644232960E+01  1.53459820560879E+00
(PID.TID 0000.0001)  ploadbar=  1.01080532984969E+05
 cg2d: Sum(rhs),rhsMax =  -4.39769473220260E+01  1.54119289312120E+00
(PID.TID 0000.0001)  ploadbar=  1.01080253473999E+05
 cg2d: Sum(rhs),rhsMax =  -4.37910893884583E+01  1.54726707247429E+00
(PID.TID 0000.0001)  ploadbar=  1.01079973963028E+05
 cg2d: Sum(rhs),rhsMax =  -4.36186183102548E+01  1.55284686146854E+00
(PID.TID 0000.0001)  ploadbar=  1.01079694452057E+05
 cg2d: Sum(rhs),rhsMax =  -4.34603442448089E+01  1.55788743204866E+00
(PID.TID 0000.0001)  ploadbar=  1.01079414941086E+05
 cg2d: Sum(rhs),rhsMax =  -4.33183255499101E+01  1.56230796104381E+00
(PID.TID 0000.0001)  ploadbar=  1.01079135430116E+05
 cg2d: Sum(rhs),rhsMax =  -4.31949023233107E+01  1.56618787976915E+00
(PID.TID 0000.0001)  ploadbar=  1.01077883336689E+05
 cg2d: Sum(rhs),rhsMax =  -4.31009867818269E+01  1.56911877137671E+00
(PID.TID 0000.0001)  ploadbar=  1.01076631243261E+05
 cg2d: Sum(rhs),rhsMax =  -4.30312223320044E+01  1.57127705202485E+00
(PID.TID 0000.0001)  ploadbar=  1.01075379149834E+05
 cg2d: Sum(rhs),rhsMax =  -4.29821360424527E+01  1.57276882869128E+00
(PID.TID 0000.0001)  ploadbar=  1.01074127056407E+05
 cg2d: Sum(rhs),rhsMax =  -4.29499245264056E+01  1.57371667585681E+00
(PID.TID 0000.0001)  ploadbar=  1.01072874962980E+05
 cg2d: Sum(rhs),rhsMax =  -4.29289900717863E+01  1.57430517708795E+00
(PID.TID 0000.0001)  ploadbar=  1.01071622869553E+05
 cg2d: Sum(rhs),rhsMax =  -4.29167868221085E+01  1.57451691993759E+00
(PID.TID 0000.0001)  ploadbar=  1.01071646639080E+05
 cg2d: Sum(rhs),rhsMax =  -4.29078397662840E+01  1.57454449049890E+00
(PID.TID 0000.0001)  ploadbar=  1.01071670408606E+05
 cg2d: Sum(rhs),rhsMax =  -4.29078545150277E+01  1.57417380249208E+00
(PID.TID 0000.0001)  ploadbar=  1.01071694178133E+05
 cg2d: Sum(rhs),rhsMax =  -4.29232779874850E+01  1.57316721435625E+00
(PID.TID 0000.0001)  ploadbar=  1.01071717947660E+05
 cg2d: Sum(rhs),rhsMax =  -4.29580343632177E+01  1.57137570602581E+00
(PID.TID 0000.0001)  ploadbar=  1.01071741717187E+05
 cg2d: Sum(rhs),rhsMax =  -4.30143255671105E+01  1.56871879165402E+00
(PID.TID 0000.0001)  ploadbar=  1.01071765486713E+05
 cg2d: Sum(rhs),rhsMax =  -4.31112033803154E+01  1.56462353181260E+00
(PID.TID 0000.0001)  ploadbar=  1.01071777061769E+05
 cg2d: Sum(rhs),rhsMax =  -4.32222900582971E+01  1.56004946180999E+00
(PID.TID 0000.0001)  ploadbar=  1.01071788636826E+05
 cg2d: Sum(rhs),rhsMax =  -4.33457362351646E+01  1.55505891737198E+00
(PID.TID 0000.0001)  ploadbar=  1.01071800211882E+05
 cg2d: Sum(rhs),rhsMax =  -4.34828286286282E+01  1.54960878976297E+00
(PID.TID 0000.0001)  ploadbar=  1.01071811786938E+05
 cg2d: Sum(rhs),rhsMax =  -4.36317217194127E+01  1.54376679918928E+00
(PID.TID 0000.0001)  ploadbar=  1.01071823361994E+05
 cg2d: Sum(rhs),rhsMax =  -4.37928789577776E+01  1.53751695684109E+00
(PID.TID 0000.0001)  ploadbar=  1.01071834937050E+05
 cg2d: Sum(rhs),rhsMax =  -4.39459896073084E+01  1.53153426672385E+00
(PID.TID 0000.0001)  ploadbar=  1.01071747452683E+05
 cg2d: Sum(rhs),rhsMax =  -4.41064352481131E+01  1.52527083740982E+00
(PID.TID 0000.0001)  ploadbar=  1.01071659968316E+05
 cg2d: Sum(rhs),rhsMax =  -4.42740306672611E+01  1.51873058358331E+00
(PID.TID 0000.0001)  ploadbar=  1.01071572483949E+05
 cg2d: Sum(rhs),rhsMax =  -4.44490102301179E+01  1.51189544331911E+00
(PID.TID 0000.0001)  ploadbar=  1.01071484999582E+05
 cg2d: Sum(rhs),rhsMax =  -4.46313720154259E+01  1.50476787373052E+00
(PID.TID 0000.0001)  ploadbar=  1.01071397515215E+05
 cg2d: Sum(rhs),rhsMax =  -4.48203273050527E+01  1.49738482814045E+00
(PID.TID 0000.0001)  ploadbar=  1.01071310030848E+05
 cg2d: Sum(rhs),rhsMax =  -4.50107357639266E+01  1.49013503720530E+00
(PID.TID 0000.0001)  ploadbar=  1.01070367543600E+05
 cg2d: Sum(rhs),rhsMax =  -4.52089605744683E+01  1.48280620551121E+00
(PID.TID 0000.0001)  ploadbar=  1.01069425056353E+05
 cg2d: Sum(rhs),rhsMax =  -4.54161516995597E+01  1.47536110605348E+00
(PID.TID 0000.0001)  ploadbar=  1.01068482569105E+05
 cg2d: Sum(rhs),rhsMax =  -4.56272449282467E+01  1.46796051277883E+00
(PID.TID 0000.0001)  ploadbar=  1.01067540081858E+05
 cg2d: Sum(rhs),rhsMax =  -4.45534965879435E+01  1.50284319626181E+00
(PID.TID 0000.0001)  ploadbar=  1.01066597594611E+05
 cg2d: Sum(rhs),rhsMax =  -4.32367003992219E+01  1.54819197723430E+00
(PID.TID 0000.0001)  ploadbar=  1.01065655107363E+05
 cg2d: Sum(rhs),rhsMax =  -4.20748831715245E+01  1.59048232096904E+00
(PID.TID 0000.0001)  ploadbar=  1.01064799105323E+05
 cg2d: Sum(rhs),rhsMax =  -4.10501337242972E+01  1.62967505859741E+00
(PID.TID 0000.0001)  ploadbar=  1.01063943103282E+05
 cg2d: Sum(rhs),rhsMax =  -4.01682718649406E+01  1.66487976094152E+00
(PID.TID 0000.0001)  ploadbar=  1.01063087101242E+05
 cg2d: Sum(rhs),rhsMax =  -3.94356248993846E+01  1.69517124882301E+00
(PID.TID 0000.0001)  ploadbar=  1.01062231099202E+05
 cg2d: Sum(rhs),rhsMax =  -3.88222609864393E+01  1.72124379480761E+00
(PID.TID 0000.0001)  ploadbar=  1.01061375097161E+05
 cg2d: Sum(rhs),rhsMax =  -3.83340159099769E+01  1.74238163590702E+00
(PID.TID 0000.0001)  ploadbar=  1.01060519095121E+05
 cg2d: Sum(rhs),rhsMax =  -3.81026952541050E+01  1.75224379671600E+00
(PID.TID 0000.0001)  ploadbar=  1.01059895293362E+05
 cg2d: Sum(rhs),rhsMax =  -3.80373730922242E+01  1.75460678397742E+00
(PID.TID 0000.0001)  ploadbar=  1.01059271491602E+05
 cg2d: Sum(rhs),rhsMax =  -3.81124527332128E+01  1.75056698935053E+00
(PID.TID 0000.0001)  ploadbar=  1.01058647689843E+05
 cg2d: Sum(rhs),rhsMax =  -3.82864052992317E+01  1.74208648123936E+00
(PID.TID 0000.0001)  ploadbar=  1.01058023888084E+05
 cg2d: Sum(rhs),rhsMax =  -3.85244698248899E+01  1.73084873177374E+00
(PID.TID 0000.0001)  ploadbar=  1.01057400086325E+05
 cg2d: Sum(rhs),rhsMax =  -3.87914744722688E+01  1.71851241494546E+00
(PID.TID 0000.0001)  ploadbar=  1.01056776284566E+05
 cg2d: Sum(rhs),rhsMax =  -3.89198236565015E+01  1.71237100407067E+00
(PID.TID 0000.0001)  ploadbar=  1.01056694400296E+05
 cg2d: Sum(rhs),rhsMax =  -3.90311608356978E+01  1.70696224325370E+00
(PID.TID 0000.0001)  ploadbar=  1.01056612516026E+05
 cg2d: Sum(rhs),rhsMax =  -3.91176897888996E+01  1.70260415106458E+00
(PID.TID 0000.0001)  ploadbar=  1.01056530631756E+05
 cg2d: Sum(rhs),rhsMax =  -3.91806063560302E+01  1.69922807234222E+00
(PID.TID 0000.0001)  ploadbar=  1.01056448747487E+05
 cg2d: Sum(rhs),rhsMax =  -3.92213845260296E+01  1.69675763496952E+00
(PID.TID 0000.0001)  ploadbar=  1.01056366863217E+05
 cg2d: Sum(rhs),rhsMax =  -3.92441525762237E+01  1.69500447276780E+00
(PID.TID 0000.0001)  ploadbar=  1.01056284978947E+05
 cg2d: Sum(rhs),rhsMax =  -3.91664176462648E+01  1.69772765213585E+00
(PID.TID 0000.0001)  ploadbar=  1.01055968081138E+05
 cg2d: Sum(rhs),rhsMax =  -3.90879235955007E+01  1.70062143546111E+00
(PID.TID 0000.0001)  ploadbar=  1.01055651183329E+05
 cg2d: Sum(rhs),rhsMax =  -3.90079277483050E+01  1.70371902702120E+00
(PID.TID 0000.0001)  ploadbar=  1.01055334285519E+05
 cg2d: Sum(rhs),rhsMax =  -3.89315725365133E+01  1.70678922830251E+00
(PID.TID 0000.0001)  ploadbar=  1.01055017387710E+05
 cg2d: Sum(rhs),rhsMax =  -3.88576751779645E+01  1.70986958566438E+00
(PID.TID 0000.0001)  ploadbar=  1.01054700489901E+05
 cg2d: Sum(rhs),rhsMax =  -3.87868182417825E+01  1.71292575502610E+00
(PID.TID 0000.0001)  ploadbar=  1.01054383592092E+05
 cg2d: Sum(rhs),rhsMax =  -3.88170656764076E+01  1.71149108161018E+00
(PID.TID 0000.0001)  ploadbar=  1.01054798138970E+05
 cg2d: Sum(rhs),rhsMax =  -3.88531214178532E+01  1.70976196377978E+00
(PID.TID 0000.0001)  ploadbar=  1.01055212685849E+05
 cg2d: Sum(rhs),rhsMax =  -3.88853939914252E+01  1.70815473629564E+00
(PID.TID 0000.0001)  ploadbar=  1.01055627232728E+05
 cg2d: Sum(rhs),rhsMax =  -3.89168536864288E+01  1.70653120712753E+00
(PID.TID 0000.0001)  ploadbar=  1.01056041779606E+05
 cg2d: Sum(rhs),rhsMax =  -3.89481396787822E+01  1.70486123324436E+00
(PID.TID 0000.0001)  ploadbar=  1.01056456326485E+05
 cg2d: Sum(rhs),rhsMax =  -3.89782535130311E+01  1.70318475081603E+00
(PID.TID 0000.0001)  ploadbar=  1.01056870873363E+05
 cg2d: Sum(rhs),rhsMax =  -3.89867264415981E+01  1.70250219008320E+00
(PID.TID 0000.0001)  ploadbar=  1.01057985636577E+05
 cg2d: Sum(rhs),rhsMax =  -3.89955449383535E+01  1.70184564838985E+00
(PID.TID 0000.0001)  ploadbar=  1.01059100399792E+05
 cg2d: Sum(rhs),rhsMax =  -3.90059986359362E+01  1.70115148316862E+00
(PID.TID 0000.0001)  ploadbar=  1.01060215163006E+05
 cg2d: Sum(rhs),rhsMax =  -3.90173149018399E+01  1.70044875657787E+00
(PID.TID 0000.0001)  ploadbar=  1.01061329926220E+05
 cg2d: Sum(rhs),rhsMax =  -3.90307826634657E+01  1.69967520704052E+00
(PID.TID 0000.0001)  ploadbar=  1.01062444689434E+05
 cg2d: Sum(rhs),rhsMax =  -3.90463353634832E+01  1.69883054654288E+00
(PID.TID 0000.0001)  ploadbar=  1.01063559452648E+05
 cg2d: Sum(rhs),rhsMax =  -3.90533079583375E+01  1.69828405160585E+00
(PID.TID 0000.0001)  ploadbar=  1.01064955965281E+05
 cg2d: Sum(rhs),rhsMax =  -3.90666901907719E+01  1.69737927178235E+00
(PID.TID 0000.0001)  ploadbar=  1.01066352477913E+05
 cg2d: Sum(rhs),rhsMax =  -3.90774368607371E+01  1.69650748751978E+00
(PID.TID 0000.0001)  ploadbar=  1.01067748990546E+05
 cg2d: Sum(rhs),rhsMax =  -3.90888839092209E+01  1.69552112307363E+00
(PID.TID 0000.0001)  ploadbar=  1.01069145503179E+05
 cg2d: Sum(rhs),rhsMax =  -3.91022229555302E+01  1.69436491077112E+00
(PID.TID 0000.0001)  ploadbar=  1.01070542015811E+05
 cg2d: Sum(rhs),rhsMax =  -3.91177010922244E+01  1.69302606452842E+00
(PID.TID 0000.0001)  ploadbar=  1.01071938528444E+05
 cg2d: Sum(rhs),rhsMax =  -3.91594014181604E+01  1.69068639589675E+00
(PID.TID 0000.0001)  ploadbar=  1.01074157361816E+05
 cg2d: Sum(rhs),rhsMax =  -3.92004015056304E+01  1.68851106563496E+00
(PID.TID 0000.0001)  ploadbar=  1.01076376195187E+05
 cg2d: Sum(rhs),rhsMax =  -3.92513276208180E+01  1.68604029525790E+00
(PID.TID 0000.0001)  ploadbar=  1.01078595028559E+05
 cg2d: Sum(rhs),rhsMax =  -3.93049362932436E+01  1.68357790674204E+00
(PID.TID 0000.0001)  ploadbar=  1.01080813861930E+05
 cg2d: Sum(rhs),rhsMax =  -3.93605365280648E+01  1.68114184616861E+00
(PID.TID 0000.0001)  ploadbar=  1.01083032695302E+05
 cg2d: Sum(rhs),rhsMax =  -3.94176057188492E+01  1.67874518585990E+00
(PID.TID 0000.0001)  ploadbar=  1.01085251528674E+05
 cg2d: Sum(rhs),rhsMax =  -3.94543786796472E+01  1.67717739952213E+00
(PID.TID 0000.0001)  ploadbar=  1.01087341469830E+05
 cg2d: Sum(rhs),rhsMax =  -3.94873548011514E+01  1.67571779664167E+00
(PID.TID 0000.0001)  ploadbar=  1.01089431410987E+05
 cg2d: Sum(rhs),rhsMax =  -3.95189569745593E+01  1.67425614432833E+00
(PID.TID 0000.0001)  ploadbar=  1.01091521352144E+05
 cg2d: Sum(rhs),rhsMax =  -3.95461985249969E+01  1.67291491437083E+00
(PID.TID 0000.0001)  ploadbar=  1.01093611293301E+05
 cg2d: Sum(rhs),rhsMax =  -3.95691724022081E+01  1.67168340711655E+00
(PID.TID 0000.0001)  ploadbar=  1.01095701234458E+05
 cg2d: Sum(rhs),rhsMax =  -3.95883737716716E+01  1.67053658405831E+00
(PID.TID 0000.0001)  ploadbar=  1.01097791175615E+05
 cg2d: Sum(rhs),rhsMax =  -3.96057674137496E+01  1.66951021938538E+00
(PID.TID 0000.0001)  ploadbar=  1.01099971274169E+05
 cg2d: Sum(rhs),rhsMax =  -3.96188010996575E+01  1.66870801549835E+00
(PID.TID 0000.0001)  ploadbar=  1.01102151372723E+05
 cg2d: Sum(rhs),rhsMax =  -3.96299649681653E+01  1.66801326022568E+00
(PID.TID 0000.0001)  ploadbar=  1.01104331471277E+05
 cg2d: Sum(rhs),rhsMax =  -3.96404693499788E+01  1.66736660564159E+00
(PID.TID 0000.0001)  ploadbar=  1.01106511569831E+05
 cg2d: Sum(rhs),rhsMax =  -3.96498895645398E+01  1.66677917317330E+00
(PID.TID 0000.0001)  ploadbar=  1.01108691668385E+05
 cg2d: Sum(rhs),rhsMax =  -3.96582271910129E+01  1.66624283919328E+00
(PID.TID 0000.0001)  ploadbar=  1.01110871766939E+05
 cg2d: Sum(rhs),rhsMax =  -3.96732005414631E+01  1.66535040693375E+00
(PID.TID 0000.0001)  ploadbar=  1.01111685215701E+05
 cg2d: Sum(rhs),rhsMax =  -3.96810705231430E+01  1.66467087759328E+00
(PID.TID 0000.0001)  ploadbar=  1.01112498664463E+05
 cg2d: Sum(rhs),rhsMax =  -3.96831898013080E+01  1.66414518381764E+00
(PID.TID 0000.0001)  ploadbar=  1.01113312113225E+05
 cg2d: Sum(rhs),rhsMax =  -3.96797598839419E+01  1.66376020197492E+00
(PID.TID 0000.0001)  ploadbar=  1.01114125561987E+05
 cg2d: Sum(rhs),rhsMax =  -3.96700846026072E+01  1.66354390857496E+00
(PID.TID 0000.0001)  ploadbar=  1.01114939010749E+05
 cg2d: Sum(rhs),rhsMax =  -3.96541332402560E+01  1.66349460294735E+00
(PID.TID 0000.0001)  ploadbar=  1.01115752459511E+05
 cg2d: Sum(rhs),rhsMax =  -3.96245828420988E+01  1.66411133990503E+00
(PID.TID 0000.0001)  ploadbar=  1.01116741777957E+05
 cg2d: Sum(rhs),rhsMax =  -3.95857769165793E+01  1.66520542100202E+00
(PID.TID 0000.0001)  ploadbar=  1.01117731096404E+05
 cg2d: Sum(rhs),rhsMax =  -3.95455367789239E+01  1.66644335192349E+00
(PID.TID 0000.0001)  ploadbar=  1.01118720414850E+05
 cg2d: Sum(rhs),rhsMax =  -3.95032268122883E+01  1.66784683329254E+00
(PID.TID 0000.0001)  ploadbar=  1.01119709733296E+05
 cg2d: Sum(rhs),rhsMax =  -3.94575045204488E+01  1.66946518602327E+00
(PID.TID 0000.0001)  ploadbar=  1.01120699051743E+05
 cg2d: Sum(rhs),rhsMax =  -3.94069783703872E+01  1.67134387014511E+00
(PID.TID 0000.0001)  ploadbar=  1.01121688370189E+05
 cg2d: Sum(rhs),rhsMax =  -3.93420398057810E+01  1.67380691703811E+00
(PID.TID 0000.0001)  ploadbar=  1.01121819752288E+05
 cg2d: Sum(rhs),rhsMax =  -3.92701155664462E+01  1.67653798622739E+00
(PID.TID 0000.0001)  ploadbar=  1.01121951134387E+05
 cg2d: Sum(rhs),rhsMax =  -3.91933672142533E+01  1.67943831106947E+00
(PID.TID 0000.0001)  ploadbar=  1.01122082516486E+05
 cg2d: Sum(rhs),rhsMax =  -3.91126777573886E+01  1.68246023432804E+00
(PID.TID 0000.0001)  ploadbar=  1.01122213898585E+05
 cg2d: Sum(rhs),rhsMax =  -3.90281715243143E+01  1.68559149329077E+00
(PID.TID 0000.0001)  ploadbar=  1.01122345280684E+05
 cg2d: Sum(rhs),rhsMax =  -3.89408659259157E+01  1.68877672968349E+00
(PID.TID 0000.0001)  ploadbar=  1.01122476662783E+05
 cg2d: Sum(rhs),rhsMax =  -3.88892089907731E+01  1.69045445443092E+00
(PID.TID 0000.0001)  ploadbar=  1.01121801712918E+05
 cg2d: Sum(rhs),rhsMax =  -3.88369036229829E+01  1.69218427512527E+00
(PID.TID 0000.0001)  ploadbar=  1.01121126763053E+05
 cg2d: Sum(rhs),rhsMax =  -3.87884030990284E+01  1.69376165105375E+00
(PID.TID 0000.0001)  ploadbar=  1.01120451813188E+05
 cg2d: Sum(rhs),rhsMax =  -3.87441937172994E+01  1.69514804264768E+00
(PID.TID 0000.0001)  ploadbar=  1.01119776863324E+05
 cg2d: Sum(rhs),rhsMax =  -3.87065327522493E+01  1.69622541663438E+00
(PID.TID 0000.0001)  ploadbar=  1.01119101913459E+05
 cg2d: Sum(rhs),rhsMax =  -3.86774639178858E+01  1.69688990536668E+00
(PID.TID 0000.0001)  ploadbar=  1.01118426963594E+05
 cg2d: Sum(rhs),rhsMax =  -3.86561708740936E+01  1.69718537035942E+00
(PID.TID 0000.0001)  ploadbar=  1.01118367182500E+05
 cg2d: Sum(rhs),rhsMax =  -3.86590037206453E+01  1.69638959632328E+00
(PID.TID 0000.0001)  ploadbar=  1.01118307401407E+05
 cg2d: Sum(rhs),rhsMax =  -3.86760417036973E+01  1.69493656058960E+00
(PID.TID 0000.0001)  ploadbar=  1.01118247620313E+05
 cg2d: Sum(rhs),rhsMax =  -3.87075624654705E+01  1.69281514742803E+00
(PID.TID 0000.0001)  ploadbar=  1.01118187839219E+05
 cg2d: Sum(rhs),rhsMax =  -3.87510493864557E+01  1.69013656563979E+00
(PID.TID 0000.0001)  ploadbar=  1.01118128058126E+05
 cg2d: Sum(rhs),rhsMax =  -3.88003230735330E+01  1.68716943538874E+00
(PID.TID 0000.0001)  ploadbar=  1.01118068277032E+05
 cg2d: Sum(rhs),rhsMax =  -3.88212832265957E+01  1.68551443507487E+00
(PID.TID 0000.0001)  ploadbar=  1.01118148900964E+05
 cg2d: Sum(rhs),rhsMax =  -3.88319921471270E+01  1.68437154837769E+00
(PID.TID 0000.0001)  ploadbar=  1.01118229524896E+05
 cg2d: Sum(rhs),rhsMax =  -3.88269206670770E+01  1.68397650800502E+00
(PID.TID 0000.0001)  ploadbar=  1.01118310148828E+05
 cg2d: Sum(rhs),rhsMax =  -3.88108668378238E+01  1.68411643379812E+00
(PID.TID 0000.0001)  ploadbar=  1.01118390772761E+05
 cg2d: Sum(rhs),rhsMax =  -3.87907071354684E+01  1.68448551532706E+00
(PID.TID 0000.0001)  ploadbar=  1.01118471396693E+05
 cg2d: Sum(rhs),rhsMax =  -3.87718853724013E+01  1.68483791597799E+00
(PID.TID 0000.0001)  ploadbar=  1.01118552020625E+05
 cg2d: Sum(rhs),rhsMax =  -3.87634491203932E+01  1.68475509850419E+00
(PID.TID 0000.0001)  ploadbar=  1.01117786163803E+05
 cg2d: Sum(rhs),rhsMax =  -3.87589895503584E+01  1.68450700396179E+00
(PID.TID 0000.0001)  ploadbar=  1.01117020306982E+05
 cg2d: Sum(rhs),rhsMax =  -3.87571575044359E+01  1.68413730055165E+00
(PID.TID 0000.0001)  ploadbar=  1.01116254450161E+05
 cg2d: Sum(rhs),rhsMax =  -3.87589781683789E+01  1.68359335398887E+00
(PID.TID 0000.0001)  ploadbar=  1.01115488593339E+05
 cg2d: Sum(rhs),rhsMax =  -3.87622772373844E+01  1.68295702414424E+00
(PID.TID 0000.0001)  ploadbar=  1.01114722736518E+05
 cg2d: Sum(rhs),rhsMax =  -3.87655202168956E+01  1.68228496813352E+00
(PID.TID 0000.0001)  ploadbar=  1.01113956879696E+05
 cg2d: Sum(rhs),rhsMax =  -3.87383035276402E+01  1.68302834879843E+00
(PID.TID 0000.0001)  ploadbar=  1.01113547689723E+05
 cg2d: Sum(rhs),rhsMax =  -3.87145602204230E+01  1.68370748822242E+00
(PID.TID 0000.0001)  ploadbar=  1.01113138499750E+05
 cg2d: Sum(rhs),rhsMax =  -3.86935427784337E+01  1.68434377087424E+00
(PID.TID 0000.0001)  ploadbar=  1.01112729309777E+05
 cg2d: Sum(rhs),rhsMax =  -3.86714391714669E+01  1.68508689103864E+00
(PID.TID 0000.0001)  ploadbar=  1.01112320119804E+05
 cg2d: Sum(rhs),rhsMax =  -3.86457238466684E+01  1.68603691189598E+00
(PID.TID 0000.0001)  ploadbar=  1.01111910929832E+05
 cg2d: Sum(rhs),rhsMax =  -3.86179245038884E+01  1.68711311205456E+00
(PID.TID 0000.0001)  ploadbar=  1.01111501739859E+05
 cg2d: Sum(rhs),rhsMax =  -3.86046708763398E+01  1.68751100081678E+00
(PID.TID 0000.0001)  ploadbar=  1.01111018444716E+05
 cg2d: Sum(rhs),rhsMax =  -3.85865062416322E+01  1.68807881521944E+00
(PID.TID 0000.0001)  ploadbar=  1.01110535149573E+05
 cg2d: Sum(rhs),rhsMax =  -3.85702289959324E+01  1.68851630317534E+00
(PID.TID 0000.0001)  ploadbar=  1.01110051854430E+05
 cg2d: Sum(rhs),rhsMax =  -3.85570841808882E+01  1.68876658929975E+00
(PID.TID 0000.0001)  ploadbar=  1.01109568559287E+05
 cg2d: Sum(rhs),rhsMax =  -3.85473415690914E+01  1.68881978561720E+00
(PID.TID 0000.0001)  ploadbar=  1.01109085264144E+05
 cg2d: Sum(rhs),rhsMax =  -3.85413776121709E+01  1.68865772797496E+00
(PID.TID 0000.0001)  ploadbar=  1.01108601969001E+05
 cg2d: Sum(rhs),rhsMax =  -3.85405594539740E+01  1.68836682535283E+00
(PID.TID 0000.0001)  ploadbar=  1.01107578744919E+05
 cg2d: Sum(rhs),rhsMax =  -3.85440649299118E+01  1.68797187880594E+00
(PID.TID 0000.0001)  ploadbar=  1.01106555520837E+05
 cg2d: Sum(rhs),rhsMax =  -3.85544183833793E+01  1.68735746595581E+00
(PID.TID 0000.0001)  ploadbar=  1.01105532296754E+05
 cg2d: Sum(rhs),rhsMax =  -3.85717828975429E+01  1.68651421583087E+00
(PID.TID 0000.0001)  ploadbar=  1.01104509072672E+05
 cg2d: Sum(rhs),rhsMax =  -3.85983598410518E+01  1.68534515073019E+00
(PID.TID 0000.0001)  ploadbar=  1.01103485848590E+05
 cg2d: Sum(rhs),rhsMax =  -3.86367177682320E+01  1.68372881811805E+00
(PID.TID 0000.0001)  ploadbar=  1.01102462624508E+05
 cg2d: Sum(rhs),rhsMax =  -3.86939317269544E+01  1.68125829808756E+00
(PID.TID 0000.0001)  ploadbar=  1.01102334025643E+05
 cg2d: Sum(rhs),rhsMax =  -3.87670398769206E+01  1.67806468378741E+00
(PID.TID 0000.0001)  ploadbar=  1.01102205426777E+05
 cg2d: Sum(rhs),rhsMax =  -3.88536774051521E+01  1.67425166867778E+00
(PID.TID 0000.0001)  ploadbar=  1.01102076827912E+05
 cg2d: Sum(rhs),rhsMax =  -3.89576433744169E+01  1.66965899547612E+00
(PID.TID 0000.0001)  ploadbar=  1.01101948229046E+05
 cg2d: Sum(rhs),rhsMax =  -3.90852826272360E+01  1.66402537353966E+00
(PID.TID 0000.0001)  ploadbar=  1.01101819630181E+05
 cg2d: Sum(rhs),rhsMax =  -3.92407252328943E+01  1.65719463571496E+00
(PID.TID 0000.0001)  ploadbar=  1.01101691031315E+05
 cg2d: Sum(rhs),rhsMax =  -3.94306141737335E+01  1.64896384444411E+00
(PID.TID 0000.0001)  ploadbar=  1.01101555925063E+05
 cg2d: Sum(rhs),rhsMax =  -3.96456582644543E+01  1.63975758925856E+00
(PID.TID 0000.0001)  ploadbar=  1.01101420818810E+05
 cg2d: Sum(rhs),rhsMax =  -3.98801114373548E+01  1.62983879999095E+00
(PID.TID 0000.0001)  ploadbar=  1.01101285712558E+05
 cg2d: Sum(rhs),rhsMax =  -4.01310485269486E+01  1.61934328781647E+00
(PID.TID 0000.0001)  ploadbar=  1.01101150606306E+05
 cg2d: Sum(rhs),rhsMax =  -4.03956918070556E+01  1.60839291363792E+00
(PID.TID 0000.0001)  ploadbar=  1.01101015500054E+05
 cg2d: Sum(rhs),rhsMax =  -4.06701142027196E+01  1.59714512663360E+00
(PID.TID 0000.0001)  ploadbar=  1.01100880393801E+05
 cg2d: Sum(rhs),rhsMax =  -4.09401700625858E+01  1.58615491484930E+00
(PID.TID 0000.0001)  ploadbar=  1.01100123687476E+05
 cg2d: Sum(rhs),rhsMax =  -4.12027673737268E+01  1.57553253128047E+00
(PID.TID 0000.0001)  ploadbar=  1.01099366981150E+05
 cg2d: Sum(rhs),rhsMax =  -4.14590528616262E+01  1.56522007314009E+00
(PID.TID 0000.0001)  ploadbar=  1.01098610274825E+05
 cg2d: Sum(rhs),rhsMax =  -4.17052200608552E+01  1.55534476294177E+00
(PID.TID 0000.0001)  ploadbar=  1.01097853568499E+05
 cg2d: Sum(rhs),rhsMax =  -4.18670375987192E+01  1.54863429312637E+00
(PID.TID 0000.0001)  ploadbar=  1.01097096862174E+05
 cg2d: Sum(rhs),rhsMax =  -4.19652405067274E+01  1.54424629199006E+00
(PID.TID 0000.0001)  ploadbar=  1.01096340155848E+05
 cg2d: Sum(rhs),rhsMax =  -4.20167046739251E+01  1.54169552501056E+00
(PID.TID 0000.0001)  ploadbar=  1.01095142609924E+05
 cg2d: Sum(rhs),rhsMax =  -4.19396657416868E+01  1.54396365978418E+00
(PID.TID 0000.0001)  ploadbar=  1.01093945064000E+05
 cg2d: Sum(rhs),rhsMax =  -4.19113375753895E+01  1.54453889264308E+00
(PID.TID 0000.0001)  ploadbar=  1.01092747518076E+05
 cg2d: Sum(rhs),rhsMax =  -4.19943429297164E+01  1.54111030248284E+00
(PID.TID 0000.0001)  ploadbar=  1.01091549972151E+05
 cg2d: Sum(rhs),rhsMax =  -4.18010817616539E+01  1.54794229482366E+00
(PID.TID 0000.0001)  ploadbar=  1.01090352426227E+05
 cg2d: Sum(rhs),rhsMax =  -4.13950138754118E+01  1.56290261305531E+00
(PID.TID 0000.0001)  ploadbar=  1.01089154880303E+05
 cg2d: Sum(rhs),rhsMax =  -4.09616047755558E+01  1.57924592138208E+00
(PID.TID 0000.0001)  ploadbar=  1.01089068997920E+05
 cg2d: Sum(rhs),rhsMax =  -4.05245023840098E+01  1.59611139280515E+00
(PID.TID 0000.0001)  ploadbar=  1.01088983115538E+05
 cg2d: Sum(rhs),rhsMax =  -4.01037918664224E+01  1.61270280949316E+00
(PID.TID 0000.0001)  ploadbar=  1.01088897233155E+05
 cg2d: Sum(rhs),rhsMax =  -3.97068370410096E+01  1.62867374185404E+00
(PID.TID 0000.0001)  ploadbar=  1.01088811350773E+05
 cg2d: Sum(rhs),rhsMax =  -3.93332916773417E+01  1.64398284148967E+00
(PID.TID 0000.0001)  ploadbar=  1.01088725468390E+05
 cg2d: Sum(rhs),rhsMax =  -3.89819395229048E+01  1.65862781462480E+00
(PID.TID 0000.0001)  ploadbar=  1.01088639586008E+05
 cg2d: Sum(rhs),rhsMax =  -3.86667406621381E+01  1.67199886937137E+00
(PID.TID 0000.0001)  ploadbar=  1.01088964295826E+05
 cg2d: Sum(rhs),rhsMax =  -3.83719096598155E+01  1.68471465410550E+00
(PID.TID 0000.0001)  ploadbar=  1.01089289005644E+05
 cg2d: Sum(rhs),rhsMax =  -3.80913576936285E+01  1.69699948965763E+00
(PID.TID 0000.0001)  ploadbar=  1.01089613715463E+05
 cg2d: Sum(rhs),rhsMax =  -3.78253146737665E+01  1.70881308357295E+00
(PID.TID 0000.0001)  ploadbar=  1.01089938425281E+05
 cg2d: Sum(rhs),rhsMax =  -3.75720611164819E+01  1.72020002874644E+00
(PID.TID 0000.0001)  ploadbar=  1.01090263135099E+05
 cg2d: Sum(rhs),rhsMax =  -3.73319135242320E+01  1.73111579459497E+00
(PID.TID 0000.0001)  ploadbar=  1.01090587844917E+05
 cg2d: Sum(rhs),rhsMax =  -3.71176510382301E+01  1.74094040170988E+00
(PID.TID 0000.0001)  ploadbar=  1.01091423636497E+05
 cg2d: Sum(rhs),rhsMax =  -3.69189800257578E+01  1.75011903306137E+00
(PID.TID 0000.0001)  ploadbar=  1.01092259428076E+05
 cg2d: Sum(rhs),rhsMax =  -3.67407931002781E+01  1.75839236466594E+00
(PID.TID 0000.0001)  ploadbar=  1.01093095219655E+05
 cg2d: Sum(rhs),rhsMax =  -3.65811924564618E+01  1.76582341699122E+00
(PID.TID 0000.0001)  ploadbar=  1.01093931011234E+05
 cg2d: Sum(rhs),rhsMax =  -3.64383310366128E+01  1.77248169605941E+00
(PID.TID 0000.0001)  ploadbar=  1.01094766802813E+05
 cg2d: Sum(rhs),rhsMax =  -3.63108354826075E+01  1.77841375658722E+00
(PID.TID 0000.0001)  ploadbar=  1.01095602594392E+05
 cg2d: Sum(rhs),rhsMax =  -3.61874961339537E+01  1.78426400264193E+00
(PID.TID 0000.0001)  ploadbar=  1.01096222823048E+05
 cg2d: Sum(rhs),rhsMax =  -3.60716759397330E+01  1.78985862232792E+00
(PID.TID 0000.0001)  ploadbar=  1.01096843051704E+05
 cg2d: Sum(rhs),rhsMax =  -3.59603085764241E+01  1.79533903899673E+00
(PID.TID 0000.0001)  ploadbar=  1.01097463280360E+05
 cg2d: Sum(rhs),rhsMax =  -3.58495058046645E+01  1.80089121729716E+00
(PID.TID 0000.0001)  ploadbar=  1.01098083509016E+05
 cg2d: Sum(rhs),rhsMax =  -3.57371823220369E+01  1.80660939284578E+00
(PID.TID 0000.0001)  ploadbar=  1.01098703737672E+05
 cg2d: Sum(rhs),rhsMax =  -3.56212225186010E+01  1.81258580521123E+00
(PID.TID 0000.0001)  ploadbar=  1.01099323966328E+05
 cg2d: Sum(rhs),rhsMax =  -3.55156953172669E+01  1.81806719970039E+00
(PID.TID 0000.0001)  ploadbar=  1.01100348389267E+05
 cg2d: Sum(rhs),rhsMax =  -3.54042980677325E+01  1.82386072710505E+00
(PID.TID 0000.0001)  ploadbar=  1.01101372812206E+05
 cg2d: Sum(rhs),rhsMax =  -3.52844573193429E+01  1.83008220830265E+00
(PID.TID 0000.0001)  ploadbar=  1.01102397235146E+05
 cg2d: Sum(rhs),rhsMax =  -3.51482059424739E+01  1.83714658576253E+00
(PID.TID 0000.0001)  ploadbar=  1.01103421658085E+05
 cg2d: Sum(rhs),rhsMax =  -3.49872324675347E+01  1.84550871238594E+00
(PID.TID 0000.0001)  ploadbar=  1.01104446081025E+05
 cg2d: Sum(rhs),rhsMax =  -3.47911609303191E+01  1.85575090098980E+00
(PID.TID 0000.0001)  ploadbar=  1.01105470503964E+05
 cg2d: Sum(rhs),rhsMax =  -3.45759741538022E+01  1.86714655942524E+00
(PID.TID 0000.0001)  ploadbar=  1.01106141543152E+05
 cg2d: Sum(rhs),rhsMax =  -3.43497940953866E+01  1.87928750428187E+00
(PID.TID 0000.0001)  ploadbar=  1.01106812582340E+05
 cg2d: Sum(rhs),rhsMax =  -3.41207399849069E+01  1.89174013941189E+00
(PID.TID 0000.0001)  ploadbar=  1.01107483621528E+05
 cg2d: Sum(rhs),rhsMax =  -3.38942879802851E+01  1.90419369849797E+00
(PID.TID 0000.0001)  ploadbar=  1.01108154660716E+05
 cg2d: Sum(rhs),rhsMax =  -3.36733197102219E+01  1.91647052354703E+00
(PID.TID 0000.0001)  ploadbar=  1.01108825699904E+05
 cg2d: Sum(rhs),rhsMax =  -3.34575738226567E+01  1.92856185925238E+00
(PID.TID 0000.0001)  ploadbar=  1.01109496739092E+05
 cg2d: Sum(rhs),rhsMax =  -3.32520065510893E+01  1.94017901662954E+00
(PID.TID 0000.0001)  ploadbar=  1.01111659513205E+05
 cg2d: Sum(rhs),rhsMax =  -3.30569904082023E+01  1.95127334071846E+00
(PID.TID 0000.0001)  ploadbar=  1.01113822287317E+05
 cg2d: Sum(rhs),rhsMax =  -3.28685869449210E+01  1.96205582604740E+00
(PID.TID 0000.0001)  ploadbar=  1.01115985061430E+05
 cg2d: Sum(rhs),rhsMax =  -3.26883998203853E+01  1.97241206053138E+00
(PID.TID 0000.0001)  ploadbar=  1.01118147835542E+05
 cg2d: Sum(rhs),rhsMax =  -3.25179534647156E+01  1.98223322204330E+00
(PID.TID 0000.0001)  ploadbar=  1.01120310609654E+05
 cg2d: Sum(rhs),rhsMax =  -3.23560318001200E+01  1.99157610118239E+00
(PID.TID 0000.0001)  ploadbar=  1.01122473383767E+05
 cg2d: Sum(rhs),rhsMax =  -3.22004021029446E+01  2.00073240531221E+00
(PID.TID 0000.0001)  ploadbar=  1.01122488344493E+05
 cg2d: Sum(rhs),rhsMax =  -3.20587309107375E+01  2.00920775217590E+00
(PID.TID 0000.0001)  ploadbar=  1.01122503305219E+05
 cg2d: Sum(rhs),rhsMax =  -3.19265289802569E+01  2.01725976164738E+00
(PID.TID 0000.0001)  ploadbar=  1.01122518265945E+05
 cg2d: Sum(rhs),rhsMax =  -3.18032873921336E+01  2.02490476883318E+00
(PID.TID 0000.0001)  ploadbar=  1.01122533226671E+05
 cg2d: Sum(rhs),rhsMax =  -3.16895496313146E+01  2.03208742184030E+00
(PID.TID 0000.0001)  ploadbar=  1.01122548187398E+05
 cg2d: Sum(rhs),rhsMax =  -3.15853021457775E+01  2.03878136135665E+00
(PID.TID 0000.0001)  ploadbar=  1.01122563148124E+05
 cg2d: Sum(rhs),rhsMax =  -3.14961656178256E+01  2.04454728129411E+00
(PID.TID 0000.0001)  ploadbar=  1.01123765120838E+05
 cg2d: Sum(rhs),rhsMax =  -3.14200399334337E+01  2.04948280886420E+00
(PID.TID 0000.0001)  ploadbar=  1.01124967093553E+05
 cg2d: Sum(rhs),rhsMax =  -3.13527407648423E+01  2.05384084110052E+00
(PID.TID 0000.0001)  ploadbar=  1.01126169066267E+05
 cg2d: Sum(rhs),rhsMax =  -3.12949263911435E+01  2.05756692271025E+00
(PID.TID 0000.0001)  ploadbar=  1.01127371038981E+05
 cg2d: Sum(rhs),rhsMax =  -3.12463676545516E+01  2.06066153911560E+00
(PID.TID 0000.0001)  ploadbar=  1.01128573011696E+05
 cg2d: Sum(rhs),rhsMax =  -3.12068168524541E+01  2.06313058930531E+00
(PID.TID 0000.0001)  ploadbar=  1.01129774984410E+05
 cg2d: Sum(rhs),rhsMax =  -3.11763794364601E+01  2.06500356934738E+00
(PID.TID 0000.0001)  ploadbar=  1.01131624570225E+05
 cg2d: Sum(rhs),rhsMax =  -3.11572574563198E+01  2.06612469986737E+00
(PID.TID 0000.0001)  ploadbar=  1.01133474156040E+05
 cg2d: Sum(rhs),rhsMax =  -3.11482514405205E+01  2.06656452799516E+00
(PID.TID 0000.0001)  ploadbar=  1.01135323741855E+05
 cg2d: Sum(rhs),rhsMax =  -3.11479095705727E+01  2.06640847978236E+00
(PID.TID 0000.0001)  ploadbar=  1.01137173327670E+05
 cg2d: Sum(rhs),rhsMax =  -3.11550403448274E+01  2.06573018034926E+00
(PID.TID 0000.0001)  ploadbar=  1.01139022913485E+05
 cg2d: Sum(rhs),rhsMax =  -3.11691330389755E+01  2.06455550921076E+00
(PID.TID 0000.0001)  ploadbar=  1.01140872499300E+05
 cg2d: Sum(rhs),rhsMax =  -3.11877886826303E+01  2.06304438547096E+00
(PID.TID 0000.0001)  ploadbar=  1.01143066438089E+05
 cg2d: Sum(rhs),rhsMax =  -3.12119434715823E+01  2.06113125157749E+00
(PID.TID 0000.0001)  ploadbar=  1.01145260376879E+05
 cg2d: Sum(rhs),rhsMax =  -3.12416700631122E+01  2.05881246994164E+00
(PID.TID 0000.0001)  ploadbar=  1.01147454315669E+05
 cg2d: Sum(rhs),rhsMax =  -3.12776545341181E+01  2.05603983795943E+00
(PID.TID 0000.0001)  ploadbar=  1.01149648254459E+05
 cg2d: Sum(rhs),rhsMax =  -3.13191536894280E+01  2.05286364975272E+00
(PID.TID 0000.0001)  ploadbar=  1.01151842193248E+05
 cg2d: Sum(rhs),rhsMax =  -3.13653371708604E+01  2.04934366977428E+00
(PID.TID 0000.0001)  ploadbar=  1.01154036132038E+05
 cg2d: Sum(rhs),rhsMax =  -3.14177205076605E+01  2.04557162565717E+00
(PID.TID 0000.0001)  ploadbar=  1.01155806791723E+05
 cg2d: Sum(rhs),rhsMax =  -3.14742712966309E+01  2.04167155327470E+00
(PID.TID 0000.0001)  ploadbar=  1.01157577451408E+05
 cg2d: Sum(rhs),rhsMax =  -3.15333067484600E+01  2.03775024814921E+00
(PID.TID 0000.0001)  ploadbar=  1.01159348111092E+05
 cg2d: Sum(rhs),rhsMax =  -3.15943257115892E+01  2.03384212239348E+00
(PID.TID 0000.0001)  ploadbar=  1.01161118770777E+05
 cg2d: Sum(rhs),rhsMax =  -3.16543252669527E+01  2.03013852585246E+00
(PID.TID 0000.0001)  ploadbar=  1.01162889430462E+05
 cg2d: Sum(rhs),rhsMax =  -3.17119833572421E+01  2.02671175014346E+00
(PID.TID 0000.0001)  ploadbar=  1.01164660090147E+05
 cg2d: Sum(rhs),rhsMax =  -3.17615207101455E+01  2.02377804188071E+00
(PID.TID 0000.0001)  ploadbar=  1.01166069779088E+05
 cg2d: Sum(rhs),rhsMax =  -3.18083478916582E+01  2.02096996817985E+00
(PID.TID 0000.0001)  ploadbar=  1.01167479468029E+05
 cg2d: Sum(rhs),rhsMax =  -3.18553577923419E+01  2.01809318128092E+00
(PID.TID 0000.0001)  ploadbar=  1.01168889156970E+05
 cg2d: Sum(rhs),rhsMax =  -3.19058438003792E+01  2.01493733424065E+00
(PID.TID 0000.0001)  ploadbar=  1.01170298845910E+05
 cg2d: Sum(rhs),rhsMax =  -3.19605030246478E+01  2.01145499725890E+00
(PID.TID 0000.0001)  ploadbar=  1.01171708534851E+05
 cg2d: Sum(rhs),rhsMax =  -3.20212041285224E+01  2.00752496299952E+00
(PID.TID 0000.0001)  ploadbar=  1.01173118223792E+05
 cg2d: Sum(rhs),rhsMax =  -3.20880100616049E+01  2.00329119376697E+00
(PID.TID 0000.0001)  ploadbar=  1.01173478769718E+05
 cg2d: Sum(rhs),rhsMax =  -3.21661087820783E+01  1.99842051537124E+00
(PID.TID 0000.0001)  ploadbar=  1.01173839315645E+05
 cg2d: Sum(rhs),rhsMax =  -3.22588375121944E+01  1.99270807213922E+00
(PID.TID 0000.0001)  ploadbar=  1.01174199861571E+05
 cg2d: Sum(rhs),rhsMax =  -3.23682317415896E+01  1.98603557265074E+00
(PID.TID 0000.0001)  ploadbar=  1.01174560407498E+05
 cg2d: Sum(rhs),rhsMax =  -3.24955327811353E+01  1.97833648103636E+00
(PID.TID 0000.0001)  ploadbar=  1.01174920953424E+05
 cg2d: Sum(rhs),rhsMax =  -3.26416930764138E+01  1.96957319411279E+00
(PID.TID 0000.0001)  ploadbar=  1.01175281499350E+05
 cg2d: Sum(rhs),rhsMax =  -3.28027972865355E+01  1.96000162377365E+00
(PID.TID 0000.0001)  ploadbar=  1.01174877572982E+05
 cg2d: Sum(rhs),rhsMax =  -3.29821697236688E+01  1.94944886921108E+00
(PID.TID 0000.0001)  ploadbar=  1.01174473646614E+05
 cg2d: Sum(rhs),rhsMax =  -3.31862494210615E+01  1.93757072429999E+00
(PID.TID 0000.0001)  ploadbar=  1.01174069720246E+05
 cg2d: Sum(rhs),rhsMax =  -3.34169161855053E+01  1.92431177278886E+00
(PID.TID 0000.0001)  ploadbar=  1.01173665793878E+05
 cg2d: Sum(rhs),rhsMax =  -3.36766272963270E+01  1.90959311288694E+00
(PID.TID 0000.0001)  ploadbar=  1.01173261867510E+05
 cg2d: Sum(rhs),rhsMax =  -3.39671950824257E+01  1.89338508125899E+00
(PID.TID 0000.0001)  ploadbar=  1.01172857941142E+05
 cg2d: Sum(rhs),rhsMax =  -3.42665129754196E+01  1.87704210335469E+00
(PID.TID 0000.0001)  ploadbar=  1.01171076550907E+05
 cg2d: Sum(rhs),rhsMax =  -3.45818547616158E+01  1.86018271326415E+00
(PID.TID 0000.0001)  ploadbar=  1.01169295160672E+05
 cg2d: Sum(rhs),rhsMax =  -3.49089524885038E+01  1.84306465863978E+00
(PID.TID 0000.0001)  ploadbar=  1.01167513770437E+05
 cg2d: Sum(rhs),rhsMax =  -3.52415471501623E+01  1.82603474427757E+00
(PID.TID 0000.0001)  ploadbar=  1.01165732380203E+05
 cg2d: Sum(rhs),rhsMax =  -3.55767881529661E+01  1.80923813658223E+00
(PID.TID 0000.0001)  ploadbar=  1.01163950989968E+05
 cg2d: Sum(rhs),rhsMax =  -3.59121769453584E+01  1.79278954399806E+00
(PID.TID 0000.0001)  ploadbar=  1.01162169599733E+05
 cg2d: Sum(rhs),rhsMax =  -3.62484144566942E+01  1.77649486863962E+00
(PID.TID 0000.0001)  ploadbar=  1.01161473262575E+05
 cg2d: Sum(rhs),rhsMax =  -3.65781227238437E+01  1.76069069838947E+00
(PID.TID 0000.0001)  ploadbar=  1.01160776925417E+05
 cg2d: Sum(rhs),rhsMax =  -3.69149356391062E+01  1.74470040684873E+00
(PID.TID 0000.0001)  ploadbar=  1.01160080588258E+05
 cg2d: Sum(rhs),rhsMax =  -3.72755075280079E+01  1.72776157236749E+00
(PID.TID 0000.0001)  ploadbar=  1.01159384251100E+05
 cg2d: Sum(rhs),rhsMax =  -3.76770633690378E+01  1.70914465085567E+00
(PID.TID 0000.0001)  ploadbar=  1.01158687913942E+05
 cg2d: Sum(rhs),rhsMax =  -3.81324401159024E+01  1.68839019604343E+00
(PID.TID 0000.0001)  ploadbar=  1.01157991576783E+05
 cg2d: Sum(rhs),rhsMax =  -3.86558420477728E+01  1.66522593766705E+00
(PID.TID 0000.0001)  ploadbar=  1.01156358325538E+05
 cg2d: Sum(rhs),rhsMax =  -3.92385536453274E+01  1.64022048332382E+00
(PID.TID 0000.0001)  ploadbar=  1.01154725074292E+05
 cg2d: Sum(rhs),rhsMax =  -3.98665560173088E+01  1.61412392220151E+00
(PID.TID 0000.0001)  ploadbar=  1.01153091823047E+05
 cg2d: Sum(rhs),rhsMax =  -4.05328222100898E+01  1.58733896733072E+00
(PID.TID 0000.0001)  ploadbar=  1.01151458571801E+05
 cg2d: Sum(rhs),rhsMax =  -4.12300248047584E+01  1.56024372028915E+00
(PID.TID 0000.0001)  ploadbar=  1.01149825320556E+05
 cg2d: Sum(rhs),rhsMax =  -4.19555482784554E+01  1.53300492402312E+00
(PID.TID 0000.0001)  ploadbar=  1.01148192069310E+05
 cg2d: Sum(rhs),rhsMax =  -4.27115561659625E+01  1.50553996001763E+00
(PID.TID 0000.0001)  ploadbar=  1.01147804059550E+05
 cg2d: Sum(rhs),rhsMax =  -4.34702032270355E+01  1.47886669096373E+00
(PID.TID 0000.0001)  ploadbar=  1.01147416049791E+05
 cg2d: Sum(rhs),rhsMax =  -4.42212161458056E+01  1.45328237348023E+00
(PID.TID 0000.0001)  ploadbar=  1.01147028040031E+05
 cg2d: Sum(rhs),rhsMax =  -4.49588120169726E+01  1.42890135889026E+00
(PID.TID 0000.0001)  ploadbar=  1.01146640030271E+05
 cg2d: Sum(rhs),rhsMax =  -4.58431101994840E+01  1.40073401281755E+00
(PID.TID 0000.0001)  ploadbar=  1.01146252020511E+05
 cg2d: Sum(rhs),rhsMax =  -4.67252064143314E+01  1.37362519978105E+00
(PID.TID 0000.0001)  ploadbar=  1.01145864010751E+05
 cg2d: Sum(rhs),rhsMax =  -4.76108705497902E+01  1.34753843176821E+00
(PID.TID 0000.0001)  ploadbar=  1.01145368764307E+05
 cg2d: Sum(rhs),rhsMax =  -4.84668735170680E+01  1.32332847618662E+00
(PID.TID 0000.0001)  ploadbar=  1.01144873517862E+05
 cg2d: Sum(rhs),rhsMax =  -4.92967120913361E+01  1.30076006446041E+00
(PID.TID 0000.0001)  ploadbar=  1.01144378271418E+05
 cg2d: Sum(rhs),rhsMax =  -5.01019143746022E+01  1.27967419520648E+00
(PID.TID 0000.0001)  ploadbar=  1.01143883024974E+05
 cg2d: Sum(rhs),rhsMax =  -5.08825930144747E+01  1.25996148344172E+00
(PID.TID 0000.0001)  ploadbar=  1.01143387778529E+05
 cg2d: Sum(rhs),rhsMax =  -5.16334890700575E+01  1.24165404916216E+00
(PID.TID 0000.0001)  ploadbar=  1.01142892532085E+05
 cg2d: Sum(rhs),rhsMax =  -5.16010327527665E+01  1.24241622374175E+00
(PID.TID 0000.0001)  ploadbar=  1.01142632435181E+05
 cg2d: Sum(rhs),rhsMax =  -5.15044789983029E+01  1.24468671605598E+00
(PID.TID 0000.0001)  ploadbar=  1.01142372338277E+05
 cg2d: Sum(rhs),rhsMax =  -5.14147784398012E+01  1.24675681034883E+00
(PID.TID 0000.0001)  ploadbar=  1.01142112241374E+05
 cg2d: Sum(rhs),rhsMax =  -5.13293211144075E+01  1.24868496806955E+00
(PID.TID 0000.0001)  ploadbar=  1.01141852144470E+05
 cg2d: Sum(rhs),rhsMax =  -5.12474145210991E+01  1.25048252862711E+00
(PID.TID 0000.0001)  ploadbar=  1.01141592047566E+05
 cg2d: Sum(rhs),rhsMax =  -5.11693988561307E+01  1.25213181900197E+00
(PID.TID 0000.0001)  ploadbar=  1.01141331950663E+05
 cg2d: Sum(rhs),rhsMax =  -5.11125676155020E+01  1.25327307527516E+00
(PID.TID 0000.0001)  ploadbar=  1.01141597837655E+05
 cg2d: Sum(rhs),rhsMax =  -5.10582537164780E+01  1.25435611652276E+00
(PID.TID 0000.0001)  ploadbar=  1.01141863724647E+05
 cg2d: Sum(rhs),rhsMax =  -5.10055804212630E+01  1.25539330258197E+00
(PID.TID 0000.0001)  ploadbar=  1.01142129611639E+05
 cg2d: Sum(rhs),rhsMax =  -5.09573519222041E+01  1.25630849116775E+00
(PID.TID 0000.0001)  ploadbar=  1.01142395498630E+05
 cg2d: Sum(rhs),rhsMax =  -5.09132871892658E+01  1.25709775348505E+00
(PID.TID 0000.0001)  ploadbar=  1.01142661385622E+05
 cg2d: Sum(rhs),rhsMax =  -5.08743827385654E+01  1.25772613834817E+00
(PID.TID 0000.0001)  ploadbar=  1.01142927272614E+05
 cg2d: Sum(rhs),rhsMax =  -5.08444965164846E+01  1.25807879656756E+00
(PID.TID 0000.0001)  ploadbar=  1.01143908037788E+05
 cg2d: Sum(rhs),rhsMax =  -5.08235600212896E+01  1.25815445478836E+00
(PID.TID 0000.0001)  ploadbar=  1.01144888802962E+05
 cg2d: Sum(rhs),rhsMax =  -5.08090114338769E+01  1.25801482683045E+00
(PID.TID 0000.0001)  ploadbar=  1.01145869568136E+05
 cg2d: Sum(rhs),rhsMax =  -5.08007461966039E+01  1.25765888660036E+00
(PID.TID 0000.0001)  ploadbar=  1.01146850333310E+05
 cg2d: Sum(rhs),rhsMax =  -5.07983762934267E+01  1.25709436436014E+00
(PID.TID 0000.0001)  ploadbar=  1.01147831098483E+05
 cg2d: Sum(rhs),rhsMax =  -5.08004605044528E+01  1.25635355398830E+00
(PID.TID 0000.0001)  ploadbar=  1.01148811863657E+05
 cg2d: Sum(rhs),rhsMax =  -5.08071859377523E+01  1.25560140495824E+00
(PID.TID 0000.0001)  ploadbar=  1.01149735332445E+05
 cg2d: Sum(rhs),rhsMax =  -5.08197536710152E+01  1.25480292954433E+00
(PID.TID 0000.0001)  ploadbar=  1.01150658801232E+05
 cg2d: Sum(rhs),rhsMax =  -5.08393711742386E+01  1.25392046966685E+00
(PID.TID 0000.0001)  ploadbar=  1.01151582270019E+05
 cg2d: Sum(rhs),rhsMax =  -5.08633652549354E+01  1.25300927174710E+00
(PID.TID 0000.0001)  ploadbar=  1.01152505738807E+05
 cg2d: Sum(rhs),rhsMax =  -5.08908673851845E+01  1.25208368632512E+00
(PID.TID 0000.0001)  ploadbar=  1.01153429207594E+05
 cg2d: Sum(rhs),rhsMax =  -5.09206813088827E+01  1.25116236276937E+00
(PID.TID 0000.0001)  ploadbar=  1.01154352676382E+05
 cg2d: Sum(rhs),rhsMax =  -5.09433752782426E+01  1.25039936597341E+00
(PID.TID 0000.0001)  ploadbar=  1.01154778556639E+05
 cg2d: Sum(rhs),rhsMax =  -5.09632635409390E+01  1.24968210150457E+00
(PID.TID 0000.0001)  ploadbar=  1.01155204436897E+05
 cg2d: Sum(rhs),rhsMax =  -5.09810224581915E+01  1.24899024938123E+00
(PID.TID 0000.0001)  ploadbar=  1.01155630317154E+05
 cg2d: Sum(rhs),rhsMax =  -5.09976850671331E+01  1.24829032027748E+00
(PID.TID 0000.0001)  ploadbar=  1.01156056197412E+05
 cg2d: Sum(rhs),rhsMax =  -5.10152459403484E+01  1.24752565674638E+00
(PID.TID 0000.0001)  ploadbar=  1.01156482077669E+05
 cg2d: Sum(rhs),rhsMax =  -5.10359224386649E+01  1.24663955969934E+00
(PID.TID 0000.0001)  ploadbar=  1.01156907957927E+05
 cg2d: Sum(rhs),rhsMax =  -5.10637891432590E+01  1.24564319854947E+00
(PID.TID 0000.0001)  ploadbar=  1.01155639887326E+05
 cg2d: Sum(rhs),rhsMax =  -5.11043778495687E+01  1.24439398362601E+00
(PID.TID 0000.0001)  ploadbar=  1.01154371816726E+05
 cg2d: Sum(rhs),rhsMax =  -5.11543731355931E+01  1.24296298314943E+00
(PID.TID 0000.0001)  ploadbar=  1.01153103746126E+05
 cg2d: Sum(rhs),rhsMax =  -5.12127067624010E+01  1.24136500482141E+00
(PID.TID 0000.0001)  ploadbar=  1.01151835675525E+05
 cg2d: Sum(rhs),rhsMax =  -5.12793492482268E+01  1.23959439019514E+00
(PID.TID 0000.0001)  ploadbar=  1.01150567604925E+05
 cg2d: Sum(rhs),rhsMax =  -5.13553685587576E+01  1.23762037369612E+00
(PID.TID 0000.0001)  ploadbar=  1.01149299534324E+05
 cg2d: Sum(rhs),rhsMax =  -5.14410452247964E+01  1.23541721379695E+00
(PID.TID 0000.0001)  ploadbar=  1.01149919317773E+05
 cg2d: Sum(rhs),rhsMax =  -5.15364803518153E+01  1.23298232241313E+00
(PID.TID 0000.0001)  ploadbar=  1.01150539101221E+05
 cg2d: Sum(rhs),rhsMax =  -5.16360849631078E+01  1.23044766841550E+00
(PID.TID 0000.0001)  ploadbar=  1.01151158884669E+05
 cg2d: Sum(rhs),rhsMax =  -5.17368813254464E+01  1.22788293623834E+00
(PID.TID 0000.0001)  ploadbar=  1.01151778668118E+05
 cg2d: Sum(rhs),rhsMax =  -5.18401035875989E+01  1.22525526886094E+00
(PID.TID 0000.0001)  ploadbar=  1.01152398451566E+05
 cg2d: Sum(rhs),rhsMax =  -5.19455967208627E+01  1.22256555202748E+00
(PID.TID 0000.0001)  ploadbar=  1.01153018235015E+05
 cg2d: Sum(rhs),rhsMax =  -5.20583937213332E+01  1.21979646760771E+00
(PID.TID 0000.0001)  ploadbar=  1.01152100380805E+05
 cg2d: Sum(rhs),rhsMax =  -5.21747233439776E+01  1.21703152142702E+00
(PID.TID 0000.0001)  ploadbar=  1.01151182526595E+05
 cg2d: Sum(rhs),rhsMax =  -5.23021119468313E+01  1.21409430752303E+00
(PID.TID 0000.0001)  ploadbar=  1.01150264672385E+05
 cg2d: Sum(rhs),rhsMax =  -5.24423455503150E+01  1.21094204487784E+00
(PID.TID 0000.0001)  ploadbar=  1.01149346818176E+05
 cg2d: Sum(rhs),rhsMax =  -5.25999782594919E+01  1.20746652006456E+00
(PID.TID 0000.0001)  ploadbar=  1.01148428963966E+05
 cg2d: Sum(rhs),rhsMax =  -5.27843305035564E+01  1.20345491575469E+00
(PID.TID 0000.0001)  ploadbar=  1.01147511109756E+05
 cg2d: Sum(rhs),rhsMax =  -5.30168476270349E+01  1.19833398549753E+00
(PID.TID 0000.0001)  ploadbar=  1.01147683406164E+05
 cg2d: Sum(rhs),rhsMax =  -5.33108190313475E+01  1.19183155379188E+00
(PID.TID 0000.0001)  ploadbar=  1.01147855702572E+05
 cg2d: Sum(rhs),rhsMax =  -5.36828329181737E+01  1.18362185600991E+00
(PID.TID 0000.0001)  ploadbar=  1.01148027998980E+05
 cg2d: Sum(rhs),rhsMax =  -5.41497015145829E+01  1.17340633158630E+00
(PID.TID 0000.0001)  ploadbar=  1.01148200295387E+05
 cg2d: Sum(rhs),rhsMax =  -5.47039463232378E+01  1.16144250813959E+00
(PID.TID 0000.0001)  ploadbar=  1.01148372591795E+05
 cg2d: Sum(rhs),rhsMax =  -5.53173043021856E+01  1.14842444226580E+00
(PID.TID 0000.0001)  ploadbar=  1.01148544888203E+05
 cg2d: Sum(rhs),rhsMax =  -5.59080772251607E+01  1.13616365936624E+00
(PID.TID 0000.0001)  ploadbar=  1.01147592168743E+05
 cg2d: Sum(rhs),rhsMax =  -5.65792993424484E+01  1.12256593732419E+00
(PID.TID 0000.0001)  ploadbar=  1.01146639449282E+05
 cg2d: Sum(rhs),rhsMax =  -5.65349546353871E+01  1.12332613247507E+00
(PID.TID 0000.0001)  ploadbar=  1.01145686729822E+05
 cg2d: Sum(rhs),rhsMax =  -5.54728672246741E+01  1.14470369946693E+00
(PID.TID 0000.0001)  ploadbar=  1.01144734010362E+05
 cg2d: Sum(rhs),rhsMax =  -5.44521794862447E+01  1.16601662224825E+00
(PID.TID 0000.0001)  ploadbar=  1.01143781290902E+05
 cg2d: Sum(rhs),rhsMax =  -5.34740953072440E+01  1.18718683366899E+00
(PID.TID 0000.0001)  ploadbar=  1.01142828571442E+05
 cg2d: Sum(rhs),rhsMax =  -5.25022576586368E+01  1.20897655380177E+00
(PID.TID 0000.0001)  ploadbar=  1.01142522505295E+05
 cg2d: Sum(rhs),rhsMax =  -5.15939062228920E+01  1.23004491442516E+00
(PID.TID 0000.0001)  ploadbar=  1.01142216439148E+05
 cg2d: Sum(rhs),rhsMax =  -5.07710518516509E+01  1.24973186116528E+00
(PID.TID 0000.0001)  ploadbar=  1.01141910373001E+05
 cg2d: Sum(rhs),rhsMax =  -5.00391468730819E+01  1.26773292707141E+00
(PID.TID 0000.0001)  ploadbar=  1.01141604306854E+05
 cg2d: Sum(rhs),rhsMax =  -4.93809975411382E+01  1.28432368710582E+00
(PID.TID 0000.0001)  ploadbar=  1.01141298240707E+05
 cg2d: Sum(rhs),rhsMax =  -4.88033768157201E+01  1.29919343131367E+00
(PID.TID 0000.0001)  ploadbar=  1.01140992174560E+05
 cg2d: Sum(rhs),rhsMax =  -4.82932458098233E+01  1.31268876033352E+00
(PID.TID 0000.0001)  ploadbar=  1.01140737216294E+05
 cg2d: Sum(rhs),rhsMax =  -4.78589352633250E+01  1.32447582600753E+00
(PID.TID 0000.0001)  ploadbar=  1.01140482258027E+05
 cg2d: Sum(rhs),rhsMax =  -4.75057828273618E+01  1.33429954976803E+00
(PID.TID 0000.0001)  ploadbar=  1.01140227299760E+05
 cg2d: Sum(rhs),rhsMax =  -4.72417317663725E+01  1.34183601645435E+00
(PID.TID 0000.0001)  ploadbar=  1.01139972341494E+05
 cg2d: Sum(rhs),rhsMax =  -4.70680109023399E+01  1.34696785478315E+00
(PID.TID 0000.0001)  ploadbar=  1.01139717383227E+05
 cg2d: Sum(rhs),rhsMax =  -4.69893827372204E+01  1.34949798393681E+00
(PID.TID 0000.0001)  ploadbar=  1.01139462424960E+05
 cg2d: Sum(rhs),rhsMax =  -4.70216083183045E+01  1.34883024824049E+00
(PID.TID 0000.0001)  ploadbar=  1.01139110885650E+05
 cg2d: Sum(rhs),rhsMax =  -4.71742143312056E+01  1.34469890570770E+00
(PID.TID 0000.0001)  ploadbar=  1.01138759346339E+05
 cg2d: Sum(rhs),rhsMax =  -4.74562134247734E+01  1.33690989192377E+00
(PID.TID 0000.0001)  ploadbar=  1.01138407807028E+05
 cg2d: Sum(rhs),rhsMax =  -4.78830042467852E+01  1.32516072093482E+00
(PID.TID 0000.0001)  ploadbar=  1.01138056267718E+05
 cg2d: Sum(rhs),rhsMax =  -4.84957773507203E+01  1.30854404287286E+00
(PID.TID 0000.0001)  ploadbar=  1.01137704728407E+05
 cg2d: Sum(rhs),rhsMax =  -4.94515739529555E+01  1.28333819327224E+00
(PID.TID 0000.0001)  ploadbar=  1.01137353189096E+05
 cg2d: Sum(rhs),rhsMax =  -4.81656771735241E+01  1.31768967545650E+00
(PID.TID 0000.0001)  ploadbar=  1.01135433671031E+05
 cg2d: Sum(rhs),rhsMax =  -4.60621723796452E+01  1.37795775877457E+00
(PID.TID 0000.0001)  ploadbar=  1.01133514152965E+05
 cg2d: Sum(rhs),rhsMax =  -4.42231551605325E+01  1.43535417740453E+00
(PID.TID 0000.0001)  ploadbar=  1.01131594634899E+05
 cg2d: Sum(rhs),rhsMax =  -4.26088073262168E+01  1.48982677870152E+00
(PID.TID 0000.0001)  ploadbar=  1.01129675116834E+05
 cg2d: Sum(rhs),rhsMax =  -4.11903851925619E+01  1.54120879643059E+00
(PID.TID 0000.0001)  ploadbar=  1.01127755598768E+05
 cg2d: Sum(rhs),rhsMax =  -3.99420025528041E+01  1.58943788140495E+00
(PID.TID 0000.0001)  ploadbar=  1.01125836080702E+05
 cg2d: Sum(rhs),rhsMax =  -3.88299569185861E+01  1.63487306833014E+00
(PID.TID 0000.0001)  ploadbar=  1.01123952432413E+05
 cg2d: Sum(rhs),rhsMax =  -3.78482230379431E+01  1.67704254755590E+00
(PID.TID 0000.0001)  ploadbar=  1.01122068784124E+05
 cg2d: Sum(rhs),rhsMax =  -3.69812535268134E+01  1.71596014751841E+00
(PID.TID 0000.0001)  ploadbar=  1.01120185135835E+05
 cg2d: Sum(rhs),rhsMax =  -3.62173604436321E+01  1.75158558912667E+00
(PID.TID 0000.0001)  ploadbar=  1.01118301487545E+05
 cg2d: Sum(rhs),rhsMax =  -3.55496833509187E+01  1.78374071160586E+00
(PID.TID 0000.0001)  ploadbar=  1.01116417839256E+05
 cg2d: Sum(rhs),rhsMax =  -3.49743594779051E+01  1.81216294770011E+00
(PID.TID 0000.0001)  ploadbar=  1.01114534190967E+05
 cg2d: Sum(rhs),rhsMax =  -3.44765182424889E+01  1.83751581643888E+00
(PID.TID 0000.0001)  ploadbar=  1.01112714093351E+05
 cg2d: Sum(rhs),rhsMax =  -3.40636719561267E+01  1.85907592938780E+00
(PID.TID 0000.0001)  ploadbar=  1.01110893995734E+05
 cg2d: Sum(rhs),rhsMax =  -3.37285937953121E+01  1.87693571636032E+00
(PID.TID 0000.0001)  ploadbar=  1.01109073898118E+05
 cg2d: Sum(rhs),rhsMax =  -3.35254487892426E+01  1.88779805525749E+00
(PID.TID 0000.0001)  ploadbar=  1.01107253800501E+05
 cg2d: Sum(rhs),rhsMax =  -3.33838575919687E+01  1.89539190934574E+00
(PID.TID 0000.0001)  ploadbar=  1.01105433702885E+05
 cg2d: Sum(rhs),rhsMax =  -3.33025965065635E+01  1.89969686142394E+00
(PID.TID 0000.0001)  ploadbar=  1.01103613605269E+05
 cg2d: Sum(rhs),rhsMax =  -3.32808534630483E+01  1.90055224859626E+00
(PID.TID 0000.0001)  ploadbar=  1.01103125396296E+05
 cg2d: Sum(rhs),rhsMax =  -3.33109415137722E+01  1.89837594711184E+00
(PID.TID 0000.0001)  ploadbar=  1.01102637187323E+05
 cg2d: Sum(rhs),rhsMax =  -3.33948981544196E+01  1.89305870787841E+00
(PID.TID 0000.0001)  ploadbar=  1.01102148978350E+05
 cg2d: Sum(rhs),rhsMax =  -3.35104836743332E+01  1.88588773617995E+00
(PID.TID 0000.0001)  ploadbar=  1.01101660769377E+05
 cg2d: Sum(rhs),rhsMax =  -3.36486122249720E+01  1.87739751337280E+00
(PID.TID 0000.0001)  ploadbar=  1.01101172560404E+05
 cg2d: Sum(rhs),rhsMax =  -3.38076075529290E+01  1.86770321559495E+00
(PID.TID 0000.0001)  ploadbar=  1.01100684351431E+05
 cg2d: Sum(rhs),rhsMax =  -3.42647954377528E+01  1.84200448840642E+00
(PID.TID 0000.0001)  ploadbar=  1.01099224848597E+05
 cg2d: Sum(rhs),rhsMax =  -3.47007180465474E+01  1.81816673403010E+00
(PID.TID 0000.0001)  ploadbar=  1.01097765345762E+05
 cg2d: Sum(rhs),rhsMax =  -3.51175303680163E+01  1.79596023082731E+00
(PID.TID 0000.0001)  ploadbar=  1.01096305842928E+05
 cg2d: Sum(rhs),rhsMax =  -3.55077715013762E+01  1.77565670128313E+00
(PID.TID 0000.0001)  ploadbar=  1.01094846340093E+05
 cg2d: Sum(rhs),rhsMax =  -3.58826467872010E+01  1.75659097402651E+00
(PID.TID 0000.0001)  ploadbar=  1.01093386837258E+05
 cg2d: Sum(rhs),rhsMax =  -3.62480108172502E+01  1.73841281585202E+00
(PID.TID 0000.0001)  ploadbar=  1.01091927334424E+05
 cg2d: Sum(rhs),rhsMax =  -3.66403814478707E+01  1.71932201472944E+00
(PID.TID 0000.0001)  ploadbar=  1.01090487436766E+05
 cg2d: Sum(rhs),rhsMax =  -3.70233054531975E+01  1.70105889943586E+00
(PID.TID 0000.0001)  ploadbar=  1.01089047539108E+05
 cg2d: Sum(rhs),rhsMax =  -3.73987116444288E+01  1.68349508840614E+00
(PID.TID 0000.0001)  ploadbar=  1.01087607641450E+05
 cg2d: Sum(rhs),rhsMax =  -3.77609920526619E+01  1.66684722331215E+00
(PID.TID 0000.0001)  ploadbar=  1.01086167743792E+05
 cg2d: Sum(rhs),rhsMax =  -3.80976582735548E+01  1.65161285532576E+00
(PID.TID 0000.0001)  ploadbar=  1.01084727846134E+05
 cg2d: Sum(rhs),rhsMax =  -3.84055054801620E+01  1.63786180575580E+00
(PID.TID 0000.0001)  ploadbar=  1.01083287948476E+05
 cg2d: Sum(rhs),rhsMax =  -3.87115194070385E+01  1.62451313521707E+00
(PID.TID 0000.0001)  ploadbar=  1.01083396012160E+05
 cg2d: Sum(rhs),rhsMax =  -3.89894822765617E+01  1.61263454575327E+00
(PID.TID 0000.0001)  ploadbar=  1.01083504075844E+05
 cg2d: Sum(rhs),rhsMax =  -3.92445055026763E+01  1.60195344971230E+00
(PID.TID 0000.0001)  ploadbar=  1.01083612139528E+05
 cg2d: Sum(rhs),rhsMax =  -3.94823218529844E+01  1.59219299169452E+00
(PID.TID 0000.0001)  ploadbar=  1.01083720203212E+05
 cg2d: Sum(rhs),rhsMax =  -3.97097413527184E+01  1.58305025441663E+00
(PID.TID 0000.0001)  ploadbar=  1.01083828266896E+05
 cg2d: Sum(rhs),rhsMax =  -3.99361089998628E+01  1.57413410968647E+00
(PID.TID 0000.0001)  ploadbar=  1.01083936330580E+05
 cg2d: Sum(rhs),rhsMax =  -4.02063097175519E+01  1.56354657874939E+00
(PID.TID 0000.0001)  ploadbar=  1.01082435624897E+05
 cg2d: Sum(rhs),rhsMax =  -4.05003991999059E+01  1.55211039223139E+00
(PID.TID 0000.0001)  ploadbar=  1.01080934919214E+05
 cg2d: Sum(rhs),rhsMax =  -4.08476303422082E+01  1.53875077590433E+00
(PID.TID 0000.0001)  ploadbar=  1.01079434213531E+05
 cg2d: Sum(rhs),rhsMax =  -4.08581264180274E+01  1.53809431710251E+00
(PID.TID 0000.0001)  ploadbar=  1.01077933507848E+05
 cg2d: Sum(rhs),rhsMax =  -4.05916018770980E+01  1.54782858242173E+00
(PID.TID 0000.0001)  ploadbar=  1.01076432802165E+05
 cg2d: Sum(rhs),rhsMax =  -4.02972150219985E+01  1.55866061083823E+00
(PID.TID 0000.0001)  ploadbar=  1.01074932096482E+05
 cg2d: Sum(rhs),rhsMax =  -3.99825346965138E+01  1.57052629300185E+00
(PID.TID 0000.0001)  ploadbar=  1.01071664570980E+05
 cg2d: Sum(rhs),rhsMax =  -3.96536638083149E+01  1.58322110901244E+00
(PID.TID 0000.0001)  ploadbar=  1.01068397045478E+05
 cg2d: Sum(rhs),rhsMax =  -3.93204045802852E+01  1.59637512030390E+00
(PID.TID 0000.0001)  ploadbar=  1.01065129519976E+05
 cg2d: Sum(rhs),rhsMax =  -3.89893940119167E+01  1.60972369218942E+00
(PID.TID 0000.0001)  ploadbar=  1.01061861994473E+05
 cg2d: Sum(rhs),rhsMax =  -3.86691254458367E+01  1.62291233638702E+00
(PID.TID 0000.0001)  ploadbar=  1.01058594468971E+05
 cg2d: Sum(rhs),rhsMax =  -3.83953662961149E+01  1.63439191537139E+00
(PID.TID 0000.0001)  ploadbar=  1.01055326943469E+05
 cg2d: Sum(rhs),rhsMax =  -3.81320494858365E+01  1.64557529002721E+00
(PID.TID 0000.0001)  ploadbar=  1.01054084723413E+05
 cg2d: Sum(rhs),rhsMax =  -3.79014460032109E+01  1.65547138861575E+00
(PID.TID 0000.0001)  ploadbar=  1.01052842503357E+05
 cg2d: Sum(rhs),rhsMax =  -3.77104230457196E+01  1.66372182531305E+00
(PID.TID 0000.0001)  ploadbar=  1.01051600283301E+05
 cg2d: Sum(rhs),rhsMax =  -3.75597390951138E+01  1.67023591026758E+00
(PID.TID 0000.0001)  ploadbar=  1.01050358063244E+05
 cg2d: Sum(rhs),rhsMax =  -3.74503815454439E+01  1.67492740599401E+00
(PID.TID 0000.0001)  ploadbar=  1.01049115843188E+05
 cg2d: Sum(rhs),rhsMax =  -3.73807683225618E+01  1.67783291508274E+00
(PID.TID 0000.0001)  ploadbar=  1.01047873623132E+05
 cg2d: Sum(rhs),rhsMax =  -3.73623764594189E+01  1.67854724059174E+00
(PID.TID 0000.0001)  ploadbar=  1.01046627081530E+05
 cg2d: Sum(rhs),rhsMax =  -3.73665844251847E+01  1.67834439827821E+00
(PID.TID 0000.0001)  ploadbar=  1.01045380539929E+05
 cg2d: Sum(rhs),rhsMax =  -3.73858576910689E+01  1.67755771867840E+00
(PID.TID 0000.0001)  ploadbar=  1.01044133998327E+05
 cg2d: Sum(rhs),rhsMax =  -3.74151492143150E+01  1.67640927975313E+00
(PID.TID 0000.0001)  ploadbar=  1.01042887456725E+05
 cg2d: Sum(rhs),rhsMax =  -3.74491919818690E+01  1.67512963343701E+00
(PID.TID 0000.0001)  ploadbar=  1.01041640915124E+05
 cg2d: Sum(rhs),rhsMax =  -3.74854835090020E+01  1.67381969251903E+00
(PID.TID 0000.0001)  ploadbar=  1.01040394373522E+05
 cg2d: Sum(rhs),rhsMax =  -3.74746092304294E+01  1.67458164153148E+00
(PID.TID 0000.0001)  ploadbar=  1.01039341910982E+05
 cg2d: Sum(rhs),rhsMax =  -3.74581088651455E+01  1.67554686954565E+00
(PID.TID 0000.0001)  ploadbar=  1.01038289448441E+05
 cg2d: Sum(rhs),rhsMax =  -3.74266052465644E+01  1.67713096236671E+00
(PID.TID 0000.0001)  ploadbar=  1.01037236985901E+05
 cg2d: Sum(rhs),rhsMax =  -3.73816857948418E+01  1.67925778037507E+00
(PID.TID 0000.0001)  ploadbar=  1.01036184523360E+05
 cg2d: Sum(rhs),rhsMax =  -3.73268243430480E+01  1.68176757062269E+00
(PID.TID 0000.0001)  ploadbar=  1.01035132060820E+05
 cg2d: Sum(rhs),rhsMax =  -3.72683775889577E+01  1.68437476522703E+00
(PID.TID 0000.0001)  ploadbar=  1.01034079598279E+05
 cg2d: Sum(rhs),rhsMax =  -3.72163144919709E+01  1.68677770289838E+00
(PID.TID 0000.0001)  ploadbar=  1.01034163956601E+05
 cg2d: Sum(rhs),rhsMax =  -3.71536251675579E+01  1.68973500940520E+00
(PID.TID 0000.0001)  ploadbar=  1.01034248314923E+05
 cg2d: Sum(rhs),rhsMax =  -3.70800472405705E+01  1.69326011266755E+00
(PID.TID 0000.0001)  ploadbar=  1.01034332673245E+05
 cg2d: Sum(rhs),rhsMax =  -3.70067359947686E+01  1.69684118175692E+00
(PID.TID 0000.0001)  ploadbar=  1.01034417031567E+05
 cg2d: Sum(rhs),rhsMax =  -3.69244744292601E+01  1.70089770848941E+00
(PID.TID 0000.0001)  ploadbar=  1.01034501389889E+05
 cg2d: Sum(rhs),rhsMax =  -3.68326281665951E+01  1.70545792986410E+00
(PID.TID 0000.0001)  ploadbar=  1.01034585748211E+05
 cg2d: Sum(rhs),rhsMax =  -3.67674174262315E+01  1.70877171000172E+00
(PID.TID 0000.0001)  ploadbar=  1.01034497765648E+05
 cg2d: Sum(rhs),rhsMax =  -3.67082800722705E+01  1.71177490723868E+00
(PID.TID 0000.0001)  ploadbar=  1.01034409783085E+05
 cg2d: Sum(rhs),rhsMax =  -3.66523343115003E+01  1.71459697016414E+00
(PID.TID 0000.0001)  ploadbar=  1.01034321800521E+05
 cg2d: Sum(rhs),rhsMax =  -3.66001890133154E+01  1.71720618484318E+00
(PID.TID 0000.0001)  ploadbar=  1.01034233817958E+05
 cg2d: Sum(rhs),rhsMax =  -3.65548521511094E+01  1.71945746895730E+00
(PID.TID 0000.0001)  ploadbar=  1.01034145835395E+05
 cg2d: Sum(rhs),rhsMax =  -3.65119161382185E+01  1.72155592399005E+00
(PID.TID 0000.0001)  ploadbar=  1.01034057852832E+05
 cg2d: Sum(rhs),rhsMax =  -3.64767071775502E+01  1.72340008673418E+00
(PID.TID 0000.0001)  ploadbar=  1.01034277849312E+05
 cg2d: Sum(rhs),rhsMax =  -3.64515663233833E+01  1.72487079960795E+00
(PID.TID 0000.0001)  ploadbar=  1.01034497845792E+05
 cg2d: Sum(rhs),rhsMax =  -3.64403768780024E+01  1.72577735039592E+00
(PID.TID 0000.0001)  ploadbar=  1.01034717842272E+05
 cg2d: Sum(rhs),rhsMax =  -3.64486791376292E+01  1.72585145309021E+00
(PID.TID 0000.0001)  ploadbar=  1.01034937838752E+05
 cg2d: Sum(rhs),rhsMax =  -3.64737340578112E+01  1.72521813661745E+00
(PID.TID 0000.0001)  ploadbar=  1.01035157835232E+05
 cg2d: Sum(rhs),rhsMax =  -3.65182213664568E+01  1.72374868266183E+00
(PID.TID 0000.0001)  ploadbar=  1.01035377831712E+05
 cg2d: Sum(rhs),rhsMax =  -3.65556216792446E+01  1.72260093339649E+00
(PID.TID 0000.0001)  ploadbar=  1.01036455749169E+05
 cg2d: Sum(rhs),rhsMax =  -3.66233463471979E+01  1.72000595572347E+00
(PID.TID 0000.0001)  ploadbar=  1.01037533666626E+05
 cg2d: Sum(rhs),rhsMax =  -3.67222786077239E+01  1.71593001100564E+00
(PID.TID 0000.0001)  ploadbar=  1.01038611584084E+05
 cg2d: Sum(rhs),rhsMax =  -3.68336249478101E+01  1.71125737553138E+00
(PID.TID 0000.0001)  ploadbar=  1.01039689501541E+05
 cg2d: Sum(rhs),rhsMax =  -3.69453971253345E+01  1.70654104786891E+00
(PID.TID 0000.0001)  ploadbar=  1.01040767418998E+05
 cg2d: Sum(rhs),rhsMax =  -3.70720342567429E+01  1.70111430178890E+00
(PID.TID 0000.0001)  ploadbar=  1.01041845336456E+05
 cg2d: Sum(rhs),rhsMax =  -3.72466452332676E+01  1.69358339580014E+00
(PID.TID 0000.0001)  ploadbar=  1.01043112636184E+05
 cg2d: Sum(rhs),rhsMax =  -3.74512291332451E+01  1.68480824880126E+00
(PID.TID 0000.0001)  ploadbar=  1.01044379935913E+05
 cg2d: Sum(rhs),rhsMax =  -3.76815216733214E+01  1.67501686861896E+00
(PID.TID 0000.0001)  ploadbar=  1.01045647235642E+05
 cg2d: Sum(rhs),rhsMax =  -3.79384628355455E+01  1.66420021848829E+00
(PID.TID 0000.0001)  ploadbar=  1.01046914535371E+05
 cg2d: Sum(rhs),rhsMax =  -3.82206999451699E+01  1.65245203758671E+00
(PID.TID 0000.0001)  ploadbar=  1.01048181835100E+05
 cg2d: Sum(rhs),rhsMax =  -3.85244012617698E+01  1.63997816427312E+00
(PID.TID 0000.0001)  ploadbar=  1.01049449134829E+05
 cg2d: Sum(rhs),rhsMax =  -3.88504760513409E+01  1.62669950066408E+00
(PID.TID 0000.0001)  ploadbar=  1.01050591823586E+05
 cg2d: Sum(rhs),rhsMax =  -3.91864842475659E+01  1.61316629284645E+00
(PID.TID 0000.0001)  ploadbar=  1.01051734512343E+05
 cg2d: Sum(rhs),rhsMax =  -3.95291484083970E+01  1.59952228086502E+00
(PID.TID 0000.0001)  ploadbar=  1.01052877201100E+05
 cg2d: Sum(rhs),rhsMax =  -3.98780749013264E+01  1.58579094181164E+00
(PID.TID 0000.0001)  ploadbar=  1.01054019889857E+05
 cg2d: Sum(rhs),rhsMax =  -4.02343166324307E+01  1.57193988596379E+00
(PID.TID 0000.0001)  ploadbar=  1.01055162578615E+05
 cg2d: Sum(rhs),rhsMax =  -4.05987660934036E+01  1.55794530841650E+00
(PID.TID 0000.0001)  ploadbar=  1.01056305267372E+05
 cg2d: Sum(rhs),rhsMax =  -4.09654941730272E+01  1.54415180044783E+00
(PID.TID 0000.0001)  ploadbar=  1.01056902169072E+05
 cg2d: Sum(rhs),rhsMax =  -4.13392450341959E+01  1.53038114531127E+00
(PID.TID 0000.0001)  ploadbar=  1.01057499070773E+05
 cg2d: Sum(rhs),rhsMax =  -4.17207541818671E+01  1.51661270663843E+00
(PID.TID 0000.0001)  ploadbar=  1.01058095972473E+05
 cg2d: Sum(rhs),rhsMax =  -4.21079156866894E+01  1.50292758619222E+00
(PID.TID 0000.0001)  ploadbar=  1.01058692874174E+05
 cg2d: Sum(rhs),rhsMax =  -4.24997314661055E+01  1.48936224245642E+00
(PID.TID 0000.0001)  ploadbar=  1.01059289775874E+05
 cg2d: Sum(rhs),rhsMax =  -4.28980750746454E+01  1.47584993274284E+00
(PID.TID 0000.0001)  ploadbar=  1.01059886677575E+05
 cg2d: Sum(rhs),rhsMax =  -4.32863240781901E+01  1.46287798745499E+00
(PID.TID 0000.0001)  ploadbar=  1.01061105258000E+05
 cg2d: Sum(rhs),rhsMax =  -4.36762313571288E+01  1.45002717754956E+00
(PID.TID 0000.0001)  ploadbar=  1.01062323838425E+05
 cg2d: Sum(rhs),rhsMax =  -4.40693685533794E+01  1.43723876658428E+00
(PID.TID 0000.0001)  ploadbar=  1.01063542418850E+05
 cg2d: Sum(rhs),rhsMax =  -4.44603724309536E+01  1.42467786436500E+00
(PID.TID 0000.0001)  ploadbar=  1.01064760999275E+05
 cg2d: Sum(rhs),rhsMax =  -4.48455288302013E+01  1.41245069695064E+00
(PID.TID 0000.0001)  ploadbar=  1.01065979579700E+05
 cg2d: Sum(rhs),rhsMax =  -4.52206039267176E+01  1.40067529178101E+00
(PID.TID 0000.0001)  ploadbar=  1.01067198160125E+05
 cg2d: Sum(rhs),rhsMax =  -4.56021634914149E+01  1.38894265151089E+00
(PID.TID 0000.0001)  ploadbar=  1.01067270766572E+05
 cg2d: Sum(rhs),rhsMax =  -4.59792271046707E+01  1.37757759563693E+00
(PID.TID 0000.0001)  ploadbar=  1.01067343373020E+05
 cg2d: Sum(rhs),rhsMax =  -4.63483616972790E+01  1.36666681743658E+00
(PID.TID 0000.0001)  ploadbar=  1.01067415979467E+05
 cg2d: Sum(rhs),rhsMax =  -4.67082932214796E+01  1.35622794771099E+00
(PID.TID 0000.0001)  ploadbar=  1.01067488585915E+05
 cg2d: Sum(rhs),rhsMax =  -4.70504974722086E+01  1.34648347866059E+00
(PID.TID 0000.0001)  ploadbar=  1.01067561192362E+05
 cg2d: Sum(rhs),rhsMax =  -4.73528579387936E+01  1.33802981285571E+00
(PID.TID 0000.0001)  ploadbar=  1.01067633798810E+05
 cg2d: Sum(rhs),rhsMax =  -4.76364663663949E+01  1.33022739907126E+00
(PID.TID 0000.0001)  ploadbar=  1.01068563882807E+05
 cg2d: Sum(rhs),rhsMax =  -4.79099400564056E+01  1.32281288024376E+00
(PID.TID 0000.0001)  ploadbar=  1.01069493966805E+05
 cg2d: Sum(rhs),rhsMax =  -4.81779766033062E+01  1.31564650274842E+00
(PID.TID 0000.0001)  ploadbar=  1.01070424050803E+05
 cg2d: Sum(rhs),rhsMax =  -4.84426308891910E+01  1.30866487927307E+00
(PID.TID 0000.0001)  ploadbar=  1.01071354134801E+05
 cg2d: Sum(rhs),rhsMax =  -4.87044960512180E+01  1.30185189507521E+00
(PID.TID 0000.0001)  ploadbar=  1.01072284218799E+05
 cg2d: Sum(rhs),rhsMax =  -4.89644336890699E+01  1.29518134112191E+00
(PID.TID 0000.0001)  ploadbar=  1.01073214302797E+05
 cg2d: Sum(rhs),rhsMax =  -4.92286979246677E+01  1.28852411754849E+00
(PID.TID 0000.0001)  ploadbar=  1.01073988983020E+05
 cg2d: Sum(rhs),rhsMax =  -4.94989958597212E+01  1.28183239938965E+00
(PID.TID 0000.0001)  ploadbar=  1.01074763663242E+05
 cg2d: Sum(rhs),rhsMax =  -4.97731622206279E+01  1.27516284069771E+00
(PID.TID 0000.0001)  ploadbar=  1.01075538343465E+05
 cg2d: Sum(rhs),rhsMax =  -5.00518887590224E+01  1.26849691810673E+00
(PID.TID 0000.0001)  ploadbar=  1.01076313023688E+05
 cg2d: Sum(rhs),rhsMax =  -5.03347580145398E+01  1.26184676007878E+00
(PID.TID 0000.0001)  ploadbar=  1.01077087703911E+05
 cg2d: Sum(rhs),rhsMax =  -5.06227556090387E+01  1.25518575714634E+00
(PID.TID 0000.0001)  ploadbar=  1.01077862384134E+05
 cg2d: Sum(rhs),rhsMax =  -5.09200004541347E+01  1.24828376274795E+00
(PID.TID 0000.0001)  ploadbar=  1.01078529683079E+05
 cg2d: Sum(rhs),rhsMax =  -5.12245059275709E+01  1.24119318521714E+00
(PID.TID 0000.0001)  ploadbar=  1.01079196982024E+05
 cg2d: Sum(rhs),rhsMax =  -5.15329402848538E+01  1.23399287487915E+00
(PID.TID 0000.0001)  ploadbar=  1.01079864280969E+05
 cg2d: Sum(rhs),rhsMax =  -5.18434297743569E+01  1.22672611016140E+00
(PID.TID 0000.0001)  ploadbar=  1.01080531579914E+05
 cg2d: Sum(rhs),rhsMax =  -5.21554644365564E+01  1.21940219015665E+00
(PID.TID 0000.0001)  ploadbar=  1.01081198878859E+05
 cg2d: Sum(rhs),rhsMax =  -5.24670349120907E+01  1.21206870617547E+00
(PID.TID 0000.0001)  ploadbar=  1.01081866177804E+05
 cg2d: Sum(rhs),rhsMax =  -5.28006583572566E+01  1.20438557731946E+00
(PID.TID 0000.0001)  ploadbar=  1.01081904464539E+05
 cg2d: Sum(rhs),rhsMax =  -5.31406055628525E+01  1.19671385370053E+00
(PID.TID 0000.0001)  ploadbar=  1.01081942751273E+05
 cg2d: Sum(rhs),rhsMax =  -5.34852249779087E+01  1.18909007384563E+00
(PID.TID 0000.0001)  ploadbar=  1.01081981038008E+05
 cg2d: Sum(rhs),rhsMax =  -5.38317912757707E+01  1.18157170001019E+00
(PID.TID 0000.0001)  ploadbar=  1.01082019324743E+05
 cg2d: Sum(rhs),rhsMax =  -5.41772941334445E+01  1.17422051597841E+00
(PID.TID 0000.0001)  ploadbar=  1.01082057611477E+05
 cg2d: Sum(rhs),rhsMax =  -5.45176751771395E+01  1.16711665212183E+00
(PID.TID 0000.0001)  ploadbar=  1.01082095898212E+05
 cg2d: Sum(rhs),rhsMax =  -5.48519770924963E+01  1.16022184740842E+00
(PID.TID 0000.0001)  ploadbar=  1.01083223599957E+05
 cg2d: Sum(rhs),rhsMax =  -5.51786110976217E+01  1.15356350967794E+00
(PID.TID 0000.0001)  ploadbar=  1.01084351301702E+05
 cg2d: Sum(rhs),rhsMax =  -5.54973031475086E+01  1.14714198960125E+00
(PID.TID 0000.0001)  ploadbar=  1.01085479003446E+05
 cg2d: Sum(rhs),rhsMax =  -5.58086274826303E+01  1.14093746816451E+00
(PID.TID 0000.0001)  ploadbar=  1.01086606705191E+05
 cg2d: Sum(rhs),rhsMax =  -5.61163397182249E+01  1.13486763225909E+00
(PID.TID 0000.0001)  ploadbar=  1.01087734406936E+05
 cg2d: Sum(rhs),rhsMax =  -5.64248638072339E+01  1.12884128867350E+00
(PID.TID 0000.0001)  ploadbar=  1.01088862108681E+05
 cg2d: Sum(rhs),rhsMax =  -5.66854914053961E+01  1.12391755175044E+00
(PID.TID 0000.0001)  ploadbar=  1.01089686799558E+05
 cg2d: Sum(rhs),rhsMax =  -5.69512416248849E+01  1.11902288463194E+00
(PID.TID 0000.0001)  ploadbar=  1.01090511490435E+05
 cg2d: Sum(rhs),rhsMax =  -5.72300680234736E+01  1.11400108173724E+00
(PID.TID 0000.0001)  ploadbar=  1.01091336181312E+05
 cg2d: Sum(rhs),rhsMax =  -5.75195822775881E+01  1.10890132890832E+00
(PID.TID 0000.0001)  ploadbar=  1.01092160872189E+05
 cg2d: Sum(rhs),rhsMax =  -5.78151331809359E+01  1.10381396465121E+00
(PID.TID 0000.0001)  ploadbar=  1.01092985563066E+05
 cg2d: Sum(rhs),rhsMax =  -5.81164621255370E+01  1.09874157935403E+00
(PID.TID 0000.0001)  ploadbar=  1.01093810253942E+05
 cg2d: Sum(rhs),rhsMax =  -5.84052202025319E+01  1.09392492603128E+00
(PID.TID 0000.0001)  ploadbar=  1.01093209512456E+05
 cg2d: Sum(rhs),rhsMax =  -5.86919720926789E+01  1.08915602482422E+00
(PID.TID 0000.0001)  ploadbar=  1.01092608770970E+05
 cg2d: Sum(rhs),rhsMax =  -5.89746770752153E+01  1.08446894939135E+00
(PID.TID 0000.0001)  ploadbar=  1.01092008029484E+05
 cg2d: Sum(rhs),rhsMax =  -5.92560673480048E+01  1.07980534648636E+00
(PID.TID 0000.0001)  ploadbar=  1.01091407287998E+05
 cg2d: Sum(rhs),rhsMax =  -5.95361163560988E+01  1.07516290361052E+00
(PID.TID 0000.0001)  ploadbar=  1.01090806546512E+05
 cg2d: Sum(rhs),rhsMax =  -5.98158014606685E+01  1.07052295805227E+00
(PID.TID 0000.0001)  ploadbar=  1.01090205805026E+05
 cg2d: Sum(rhs),rhsMax =  -6.01117987597293E+01  1.06564777462659E+00
(PID.TID 0000.0001)  ploadbar=  1.01088234175209E+05
 cg2d: Sum(rhs),rhsMax =  -6.04084078123733E+01  1.06081067424054E+00
(PID.TID 0000.0001)  ploadbar=  1.01086262545391E+05
 cg2d: Sum(rhs),rhsMax =  -6.07103114014552E+01  1.05592637740808E+00
(PID.TID 0000.0001)  ploadbar=  1.01084290915574E+05
 cg2d: Sum(rhs),rhsMax =  -6.10201472383356E+01  1.05094891547005E+00
(PID.TID 0000.0001)  ploadbar=  1.01082319285756E+05
 cg2d: Sum(rhs),rhsMax =  -6.13417248761895E+01  1.04581219700718E+00
(PID.TID 0000.0001)  ploadbar=  1.01080347655938E+05
 cg2d: Sum(rhs),rhsMax =  -6.16825505887799E+01  1.04039230822784E+00
(PID.TID 0000.0001)  ploadbar=  1.01078376026121E+05
 cg2d: Sum(rhs),rhsMax =  -6.20636199650114E+01  1.03432398226472E+00
(PID.TID 0000.0001)  ploadbar=  1.01077796548182E+05
 cg2d: Sum(rhs),rhsMax =  -6.24597904451944E+01  1.02804178610149E+00
(PID.TID 0000.0001)  ploadbar=  1.01077217070244E+05
 cg2d: Sum(rhs),rhsMax =  -6.28717386446431E+01  1.02154133900498E+00
(PID.TID 0000.0001)  ploadbar=  1.01076637592306E+05
 cg2d: Sum(rhs),rhsMax =  -6.33062069100173E+01  1.01472272436260E+00
(PID.TID 0000.0001)  ploadbar=  1.01076058114368E+05
 cg2d: Sum(rhs),rhsMax =  -6.37719520176192E+01  1.00746206347849E+00
(PID.TID 0000.0001)  ploadbar=  1.01075478636429E+05
 cg2d: Sum(rhs),rhsMax =  -6.42838130680733E+01  9.99548838179642E-01
(PID.TID 0000.0001)  ploadbar=  1.01074899158491E+05
 cg2d: Sum(rhs),rhsMax =  -6.37480488170849E+01  1.00813478981440E+00
(PID.TID 0000.0001)  ploadbar=  1.01075380999151E+05
 cg2d: Sum(rhs),rhsMax =  -6.30761243718012E+01  1.01913485320536E+00
(PID.TID 0000.0001)  ploadbar=  1.01075862839810E+05
 cg2d: Sum(rhs),rhsMax =  -6.23822888048919E+01  1.03080515556008E+00
(PID.TID 0000.0001)  ploadbar=  1.01076344680470E+05
 cg2d: Sum(rhs),rhsMax =  -6.16747499846237E+01  1.04304078603063E+00
(PID.TID 0000.0001)  ploadbar=  1.01076826521130E+05
 cg2d: Sum(rhs),rhsMax =  -6.09534166923605E+01  1.05586861109737E+00
(PID.TID 0000.0001)  ploadbar=  1.01077308361790E+05
 cg2d: Sum(rhs),rhsMax =  -6.02152580827544E+01  1.06936967123835E+00
(PID.TID 0000.0001)  ploadbar=  1.01077790202450E+05
 cg2d: Sum(rhs),rhsMax =  -5.94411020383156E+01  1.08380913357222E+00
(PID.TID 0000.0001)  ploadbar=  1.01077305201141E+05
 cg2d: Sum(rhs),rhsMax =  -5.86561660302774E+01  1.09877662780074E+00
(PID.TID 0000.0001)  ploadbar=  1.01076820199832E+05
 cg2d: Sum(rhs),rhsMax =  -5.79005725325075E+01  1.11352785083325E+00
(PID.TID 0000.0001)  ploadbar=  1.01076335198523E+05
 cg2d: Sum(rhs),rhsMax =  -5.71767875906926E+01  1.12798018942612E+00
(PID.TID 0000.0001)  ploadbar=  1.01075850197214E+05
 cg2d: Sum(rhs),rhsMax =  -5.64959722415090E+01  1.14186960982175E+00
(PID.TID 0000.0001)  ploadbar=  1.01075365195905E+05
 cg2d: Sum(rhs),rhsMax =  -5.58658820837454E+01  1.15498244777407E+00
(PID.TID 0000.0001)  ploadbar=  1.01074880194596E+05
 cg2d: Sum(rhs),rhsMax =  -5.52982623861096E+01  1.16708199021927E+00
(PID.TID 0000.0001)  ploadbar=  1.01074089618622E+05
 cg2d: Sum(rhs),rhsMax =  -5.48013743456252E+01  1.17791137075413E+00
(PID.TID 0000.0001)  ploadbar=  1.01073299042648E+05
 cg2d: Sum(rhs),rhsMax =  -5.43730422663589E+01  1.18743514775792E+00
(PID.TID 0000.0001)  ploadbar=  1.01072508466674E+05
 cg2d: Sum(rhs),rhsMax =  -5.40105633768770E+01  1.19564135616890E+00
(PID.TID 0000.0001)  ploadbar=  1.01071717890700E+05
 cg2d: Sum(rhs),rhsMax =  -5.37071592361159E+01  1.20262230989621E+00
(PID.TID 0000.0001)  ploadbar=  1.01070927314726E+05
 cg2d: Sum(rhs),rhsMax =  -5.34566536147088E+01  1.20846949705812E+00
(PID.TID 0000.0001)  ploadbar=  1.01070136738752E+05
 cg2d: Sum(rhs),rhsMax =  -5.32510332875724E+01  1.21331198087326E+00
(PID.TID 0000.0001)  ploadbar=  1.01069870937047E+05
 cg2d: Sum(rhs),rhsMax =  -5.30366891058127E+01  1.21835527674565E+00
(PID.TID 0000.0001)  ploadbar=  1.01069605135342E+05
 cg2d: Sum(rhs),rhsMax =  -5.27958971320201E+01  1.22401361711599E+00
(PID.TID 0000.0001)  ploadbar=  1.01069339333637E+05
 cg2d: Sum(rhs),rhsMax =  -5.25201312294372E+01  1.23050212837018E+00
(PID.TID 0000.0001)  ploadbar=  1.01069073531932E+05
 cg2d: Sum(rhs),rhsMax =  -5.22053565212828E+01  1.23794233828647E+00
(PID.TID 0000.0001)  ploadbar=  1.01068807730227E+05
 cg2d: Sum(rhs),rhsMax =  -5.18483082731761E+01  1.24644672361927E+00
(PID.TID 0000.0001)  ploadbar=  1.01068541928522E+05
 cg2d: Sum(rhs),rhsMax =  -5.14397231370409E+01  1.25638469916327E+00
(PID.TID 0000.0001)  ploadbar=  1.01068967481420E+05
 cg2d: Sum(rhs),rhsMax =  -5.09771104314779E+01  1.26788275582411E+00
(PID.TID 0000.0001)  ploadbar=  1.01069393034319E+05
 cg2d: Sum(rhs),rhsMax =  -5.04623917607834E+01  1.28096820580275E+00
(PID.TID 0000.0001)  ploadbar=  1.01069818587217E+05
 cg2d: Sum(rhs),rhsMax =  -4.99143882565357E+01  1.29523906066876E+00
(PID.TID 0000.0001)  ploadbar=  1.01070244140115E+05
 cg2d: Sum(rhs),rhsMax =  -4.93485273462305E+01  1.31035319432868E+00
(PID.TID 0000.0001)  ploadbar=  1.01070669693013E+05
 cg2d: Sum(rhs),rhsMax =  -4.87826275919932E+01  1.32587093832653E+00
(PID.TID 0000.0001)  ploadbar=  1.01071095245912E+05
 cg2d: Sum(rhs),rhsMax =  -4.82112328416209E+01  1.34187473667996E+00
(PID.TID 0000.0001)  ploadbar=  1.01071302467314E+05
 cg2d: Sum(rhs),rhsMax =  -4.76484949994304E+01  1.35798065698986E+00
(PID.TID 0000.0001)  ploadbar=  1.01071509688717E+05
 cg2d: Sum(rhs),rhsMax =  -4.70881967585868E+01  1.37436232225475E+00
(PID.TID 0000.0001)  ploadbar=  1.01071716910119E+05
 cg2d: Sum(rhs),rhsMax =  -4.65692595416501E+01  1.38985837228209E+00
(PID.TID 0000.0001)  ploadbar=  1.01071924131522E+05
 cg2d: Sum(rhs),rhsMax =  -4.63465556822078E+01  1.39666983814826E+00
(PID.TID 0000.0001)  ploadbar=  1.01072131352924E+05
 cg2d: Sum(rhs),rhsMax =  -4.61393185992025E+01  1.40302602339247E+00
(PID.TID 0000.0001)  ploadbar=  1.01072338574327E+05
 cg2d: Sum(rhs),rhsMax =  -4.59966454901713E+01  1.40749138108855E+00
(PID.TID 0000.0001)  ploadbar=  1.01072547695481E+05
 cg2d: Sum(rhs),rhsMax =  -4.59344924955315E+01  1.40953141297228E+00
(PID.TID 0000.0001)  ploadbar=  1.01072756816636E+05
 cg2d: Sum(rhs),rhsMax =  -4.59403253654349E+01  1.40949925358302E+00
(PID.TID 0000.0001)  ploadbar=  1.01072965937790E+05
 cg2d: Sum(rhs),rhsMax =  -4.60074059185058E+01  1.40759990233883E+00
(PID.TID 0000.0001)  ploadbar=  1.01073175058944E+05
 cg2d: Sum(rhs),rhsMax =  -4.61235876539394E+01  1.40421301324249E+00
(PID.TID 0000.0001)  ploadbar=  1.01073384180098E+05
 cg2d: Sum(rhs),rhsMax =  -4.62765937785442E+01  1.39972597131031E+00
(PID.TID 0000.0001)  ploadbar=  1.01073593301253E+05
 cg2d: Sum(rhs),rhsMax =  -4.64247642863474E+01  1.39535823712541E+00
(PID.TID 0000.0001)  ploadbar=  1.01074275660696E+05
 cg2d: Sum(rhs),rhsMax =  -4.66073450031582E+01  1.38993316537687E+00
(PID.TID 0000.0001)  ploadbar=  1.01074958020140E+05
 cg2d: Sum(rhs),rhsMax =  -4.68205271757857E+01  1.38358529940145E+00
(PID.TID 0000.0001)  ploadbar=  1.01075640379583E+05
 cg2d: Sum(rhs),rhsMax =  -4.70530990815361E+01  1.37666547322226E+00
(PID.TID 0000.0001)  ploadbar=  1.01076322739027E+05
 cg2d: Sum(rhs),rhsMax =  -4.72502388831909E+01  1.37078018440285E+00
(PID.TID 0000.0001)  ploadbar=  1.01077005098470E+05
 cg2d: Sum(rhs),rhsMax =  -4.59395919893503E+01  1.40967982833834E+00
(PID.TID 0000.0001)  ploadbar=  1.01077687457914E+05
 cg2d: Sum(rhs),rhsMax =  -4.43295126180033E+01  1.46075791121850E+00
(PID.TID 0000.0001)  ploadbar=  1.01077970783535E+05
 cg2d: Sum(rhs),rhsMax =  -4.27537488826602E+01  1.51456220838165E+00
(PID.TID 0000.0001)  ploadbar=  1.01078254109156E+05
 cg2d: Sum(rhs),rhsMax =  -4.16604613327819E+01  1.55436508169981E+00
(PID.TID 0000.0001)  ploadbar=  1.01078537434777E+05
 cg2d: Sum(rhs),rhsMax =  -4.08161832586052E+01  1.58666753937490E+00
(PID.TID 0000.0001)  ploadbar=  1.01078820760398E+05
 cg2d: Sum(rhs),rhsMax =  -4.02062193872397E+01  1.61098537363568E+00
(PID.TID 0000.0001)  ploadbar=  1.01079104086019E+05
 cg2d: Sum(rhs),rhsMax =  -3.97460715329433E+01  1.62997827270457E+00
(PID.TID 0000.0001)  ploadbar=  1.01079387411641E+05
 cg2d: Sum(rhs),rhsMax =  -3.93632816127945E+01  1.64618940880715E+00
(PID.TID 0000.0001)  ploadbar=  1.01079803834281E+05
 cg2d: Sum(rhs),rhsMax =  -3.89791751332076E+01  1.66278619625057E+00
(PID.TID 0000.0001)  ploadbar=  1.01080220256923E+05
 cg2d: Sum(rhs),rhsMax =  -3.86055247201703E+01  1.67926058569860E+00
(PID.TID 0000.0001)  ploadbar=  1.01080636679564E+05
 cg2d: Sum(rhs),rhsMax =  -3.82679570675247E+01  1.69445192836296E+00
(PID.TID 0000.0001)  ploadbar=  1.01081053102204E+05
 cg2d: Sum(rhs),rhsMax =  -3.79821077581953E+01  1.70757596042539E+00
(PID.TID 0000.0001)  ploadbar=  1.01081469524846E+05
 cg2d: Sum(rhs),rhsMax =  -3.77634147449084E+01  1.71782871779234E+00
(PID.TID 0000.0001)  ploadbar=  1.01081885947487E+05
 cg2d: Sum(rhs),rhsMax =  -3.75978280982965E+01  1.72581012977075E+00
(PID.TID 0000.0001)  ploadbar=  1.01081120790955E+05
 cg2d: Sum(rhs),rhsMax =  -3.77154014560333E+01  1.72089016087463E+00
(PID.TID 0000.0001)  ploadbar=  1.01080355634423E+05
 cg2d: Sum(rhs),rhsMax =  -3.79579241935773E+01  1.71038857647972E+00
(PID.TID 0000.0001)  ploadbar=  1.01079590477891E+05
 cg2d: Sum(rhs),rhsMax =  -3.81558936310066E+01  1.70203461256497E+00
(PID.TID 0000.0001)  ploadbar=  1.01078825321360E+05
 cg2d: Sum(rhs),rhsMax =  -3.83931277679395E+01  1.69205225349465E+00
(PID.TID 0000.0001)  ploadbar=  1.01078060164828E+05
 cg2d: Sum(rhs),rhsMax =  -3.86408941030523E+01  1.68174291913681E+00
(PID.TID 0000.0001)  ploadbar=  1.01077295008296E+05
 cg2d: Sum(rhs),rhsMax =  -3.88980550652824E+01  1.67106427483596E+00
(PID.TID 0000.0001)  ploadbar=  1.01077553162755E+05
 cg2d: Sum(rhs),rhsMax =  -3.91646688676371E+01  1.66002664221460E+00
(PID.TID 0000.0001)  ploadbar=  1.01077811317213E+05
 cg2d: Sum(rhs),rhsMax =  -3.94368702238876E+01  1.64880666397689E+00
(PID.TID 0000.0001)  ploadbar=  1.01078069471672E+05
 cg2d: Sum(rhs),rhsMax =  -3.97157974486981E+01  1.63736418185205E+00
(PID.TID 0000.0001)  ploadbar=  1.01078327626130E+05
 cg2d: Sum(rhs),rhsMax =  -3.99980480018672E+01  1.62584835316068E+00
(PID.TID 0000.0001)  ploadbar=  1.01078585780589E+05
 cg2d: Sum(rhs),rhsMax =  -4.02796542065556E+01  1.61442404070286E+00
(PID.TID 0000.0001)  ploadbar=  1.01078843935047E+05
 cg2d: Sum(rhs),rhsMax =  -4.05576461098351E+01  1.60340982600229E+00
(PID.TID 0000.0001)  ploadbar=  1.01079433724395E+05
 cg2d: Sum(rhs),rhsMax =  -4.08278127840848E+01  1.59295281131092E+00
(PID.TID 0000.0001)  ploadbar=  1.01080023513742E+05
 cg2d: Sum(rhs),rhsMax =  -4.10841728831257E+01  1.58325891549349E+00
(PID.TID 0000.0001)  ploadbar=  1.01080613303090E+05
 cg2d: Sum(rhs),rhsMax =  -4.13273883734771E+01  1.57427267671762E+00
(PID.TID 0000.0001)  ploadbar=  1.01081203092438E+05
 cg2d: Sum(rhs),rhsMax =  -4.15605589454287E+01  1.56585497650627E+00
(PID.TID 0000.0001)  ploadbar=  1.01081792881785E+05
 cg2d: Sum(rhs),rhsMax =  -4.17858737489117E+01  1.55790849806721E+00
(PID.TID 0000.0001)  ploadbar=  1.01082382671133E+05
 cg2d: Sum(rhs),rhsMax =  -4.20172214519049E+01  1.54981664695439E+00
(PID.TID 0000.0001)  ploadbar=  1.01082695315896E+05
 cg2d: Sum(rhs),rhsMax =  -4.22529220157113E+01  1.54163909906487E+00
(PID.TID 0000.0001)  ploadbar=  1.01083007960660E+05
 cg2d: Sum(rhs),rhsMax =  -4.24866316229342E+01  1.53359948171779E+00
(PID.TID 0000.0001)  ploadbar=  1.01083320605423E+05
 cg2d: Sum(rhs),rhsMax =  -4.27245797528795E+01  1.52546455714485E+00
(PID.TID 0000.0001)  ploadbar=  1.01083633250186E+05
 cg2d: Sum(rhs),rhsMax =  -4.29636580045970E+01  1.51734701978407E+00
(PID.TID 0000.0001)  ploadbar=  1.01083945894949E+05
 cg2d: Sum(rhs),rhsMax =  -4.31870117717981E+01  1.50983615969147E+00
(PID.TID 0000.0001)  ploadbar=  1.01084258539713E+05
 cg2d: Sum(rhs),rhsMax =  -4.34025690462350E+01  1.50274043690349E+00
(PID.TID 0000.0001)  ploadbar=  1.01083360084891E+05
 cg2d: Sum(rhs),rhsMax =  -4.36149781675923E+01  1.49588610971312E+00
(PID.TID 0000.0001)  ploadbar=  1.01082461630070E+05
 cg2d: Sum(rhs),rhsMax =  -4.38219227175658E+01  1.48933749128435E+00
(PID.TID 0000.0001)  ploadbar=  1.01081563175248E+05
 cg2d: Sum(rhs),rhsMax =  -4.40212404157185E+01  1.48314532662749E+00
(PID.TID 0000.0001)  ploadbar=  1.01080664720426E+05
 cg2d: Sum(rhs),rhsMax =  -4.42132353247020E+01  1.47728395113360E+00
(PID.TID 0000.0001)  ploadbar=  1.01079766265605E+05
 cg2d: Sum(rhs),rhsMax =  -4.43979389285372E+01  1.47173676896165E+00
(PID.TID 0000.0001)  ploadbar=  1.01078867810783E+05
 cg2d: Sum(rhs),rhsMax =  -4.45757240627473E+01  1.46638374425800E+00
(PID.TID 0000.0001)  ploadbar=  1.01078046442995E+05
 cg2d: Sum(rhs),rhsMax =  -4.47456723503572E+01  1.46124887571381E+00
(PID.TID 0000.0001)  ploadbar=  1.01077225075208E+05
 cg2d: Sum(rhs),rhsMax =  -4.49074360703193E+01  1.45633692883352E+00
(PID.TID 0000.0001)  ploadbar=  1.01076403707420E+05
 cg2d: Sum(rhs),rhsMax =  -4.50544258668124E+01  1.45185497917488E+00
(PID.TID 0000.0001)  ploadbar=  1.01075582339632E+05
 cg2d: Sum(rhs),rhsMax =  -4.51854631768384E+01  1.44783229249880E+00
(PID.TID 0000.0001)  ploadbar=  1.01074760971845E+05
 cg2d: Sum(rhs),rhsMax =  -4.53020920515238E+01  1.44421176426378E+00
(PID.TID 0000.0001)  ploadbar=  1.01073939604057E+05
 cg2d: Sum(rhs),rhsMax =  -4.53753219864821E+01  1.44202526031838E+00
(PID.TID 0000.0001)  ploadbar=  1.01074144409993E+05
 cg2d: Sum(rhs),rhsMax =  -4.54379754727710E+01  1.44021207056031E+00
(PID.TID 0000.0001)  ploadbar=  1.01074349215928E+05
 cg2d: Sum(rhs),rhsMax =  -4.54875739293683E+01  1.43883853250233E+00
(PID.TID 0000.0001)  ploadbar=  1.01074554021863E+05
 cg2d: Sum(rhs),rhsMax =  -4.55220869333230E+01  1.43796380505999E+00
(PID.TID 0000.0001)  ploadbar=  1.01074758827799E+05
 cg2d: Sum(rhs),rhsMax =  -4.55433472398266E+01  1.43752808508263E+00
(PID.TID 0000.0001)  ploadbar=  1.01074963633735E+05
 cg2d: Sum(rhs),rhsMax =  -4.55509748447073E+01  1.43754171865294E+00
(PID.TID 0000.0001)  ploadbar=  1.01075168439670E+05
 cg2d: Sum(rhs),rhsMax =  -4.55265273250415E+01  1.43851964848757E+00
(PID.TID 0000.0001)  ploadbar=  1.01075171212820E+05
 cg2d: Sum(rhs),rhsMax =  -4.54908364907509E+01  1.43980101499383E+00
(PID.TID 0000.0001)  ploadbar=  1.01075173985970E+05
 cg2d: Sum(rhs),rhsMax =  -4.54417102255206E+01  1.44144815331364E+00
(PID.TID 0000.0001)  ploadbar=  1.01075176759120E+05
 cg2d: Sum(rhs),rhsMax =  -4.53719033901308E+01  1.44368816573437E+00
(PID.TID 0000.0001)  ploadbar=  1.01075179532270E+05
 cg2d: Sum(rhs),rhsMax =  -4.52777731125366E+01  1.44663981458625E+00
(PID.TID 0000.0001)  ploadbar=  1.01075182305420E+05
 cg2d: Sum(rhs),rhsMax =  -4.51573434031453E+01  1.45037347010701E+00
(PID.TID 0000.0001)  ploadbar=  1.01075185078570E+05
 cg2d: Sum(rhs),rhsMax =  -4.49705649549092E+01  1.45633119951870E+00
(PID.TID 0000.0001)  ploadbar=  1.01074697220188E+05
 cg2d: Sum(rhs),rhsMax =  -4.47656107440910E+01  1.46298944145974E+00
(PID.TID 0000.0001)  ploadbar=  1.01074209361806E+05
 cg2d: Sum(rhs),rhsMax =  -4.45486509722182E+01  1.47015381923537E+00
(PID.TID 0000.0001)  ploadbar=  1.01073721503424E+05
 cg2d: Sum(rhs),rhsMax =  -4.43269130790467E+01  1.47758398455847E+00
(PID.TID 0000.0001)  ploadbar=  1.01073233645042E+05
 cg2d: Sum(rhs),rhsMax =  -4.41089012278769E+01  1.48498827111519E+00
(PID.TID 0000.0001)  ploadbar=  1.01072745786659E+05
 cg2d: Sum(rhs),rhsMax =  -4.39106391306429E+01  1.49181654670761E+00
(PID.TID 0000.0001)  ploadbar=  1.01072257928277E+05
 cg2d: Sum(rhs),rhsMax =  -4.37629614616461E+01  1.49694017232255E+00
(PID.TID 0000.0001)  ploadbar=  1.01072215795796E+05
 cg2d: Sum(rhs),rhsMax =  -4.36667228248640E+01  1.50029383970657E+00
(PID.TID 0000.0001)  ploadbar=  1.01072173663315E+05
 cg2d: Sum(rhs),rhsMax =  -4.36241697055393E+01  1.50177541119354E+00
(PID.TID 0000.0001)  ploadbar=  1.01072131530834E+05
 cg2d: Sum(rhs),rhsMax =  -4.36217352851739E+01  1.50183812080430E+00
(PID.TID 0000.0001)  ploadbar=  1.01072089398353E+05
 cg2d: Sum(rhs),rhsMax =  -4.36409232248653E+01  1.50111629234596E+00
(PID.TID 0000.0001)  ploadbar=  1.01072047265872E+05
 cg2d: Sum(rhs),rhsMax =  -4.36696570874996E+01  1.50002700137041E+00
(PID.TID 0000.0001)  ploadbar=  1.01072005133390E+05
 cg2d: Sum(rhs),rhsMax =  -4.37629031236601E+01  1.49679843779289E+00
(PID.TID 0000.0001)  ploadbar=  1.01071854020955E+05
 cg2d: Sum(rhs),rhsMax =  -4.38658301032419E+01  1.49331768627770E+00
(PID.TID 0000.0001)  ploadbar=  1.01071702908519E+05
 cg2d: Sum(rhs),rhsMax =  -4.39701370514140E+01  1.48986250260829E+00
(PID.TID 0000.0001)  ploadbar=  1.01071551796083E+05
 cg2d: Sum(rhs),rhsMax =  -4.40790787645998E+01  1.48631759839876E+00
(PID.TID 0000.0001)  ploadbar=  1.01071400683647E+05
 cg2d: Sum(rhs),rhsMax =  -4.42010049543259E+01  1.48240417259740E+00
(PID.TID 0000.0001)  ploadbar=  1.01071249571211E+05
 cg2d: Sum(rhs),rhsMax =  -4.43380826302733E+01  1.47805680314359E+00
(PID.TID 0000.0001)  ploadbar=  1.01071098458776E+05
 cg2d: Sum(rhs),rhsMax =  -4.44706554003784E+01  1.47387710104681E+00
(PID.TID 0000.0001)  ploadbar=  1.01070616010841E+05
 cg2d: Sum(rhs),rhsMax =  -4.46131376193486E+01  1.46938397812745E+00
(PID.TID 0000.0001)  ploadbar=  1.01070133562907E+05
 cg2d: Sum(rhs),rhsMax =  -4.47602213525734E+01  1.46475106171391E+00
(PID.TID 0000.0001)  ploadbar=  1.01069651114972E+05
 cg2d: Sum(rhs),rhsMax =  -4.49207807308597E+01  1.45968482821201E+00
(PID.TID 0000.0001)  ploadbar=  1.01069168667038E+05
 cg2d: Sum(rhs),rhsMax =  -4.50923542474664E+01  1.45427110761319E+00
(PID.TID 0000.0001)  ploadbar=  1.01068686219104E+05
 cg2d: Sum(rhs),rhsMax =  -4.52733695514795E+01  1.44856859093881E+00
(PID.TID 0000.0001)  ploadbar=  1.01068203771169E+05
 cg2d: Sum(rhs),rhsMax =  -4.54525771449061E+01  1.44299968050002E+00
(PID.TID 0000.0001)  ploadbar=  1.01067889600660E+05
 cg2d: Sum(rhs),rhsMax =  -4.56508614642873E+01  1.43690320787757E+00
(PID.TID 0000.0001)  ploadbar=  1.01067575430150E+05
 cg2d: Sum(rhs),rhsMax =  -4.58773854655656E+01  1.42999932821784E+00
(PID.TID 0000.0001)  ploadbar=  1.01067261259640E+05
 cg2d: Sum(rhs),rhsMax =  -4.61366311963238E+01  1.42216568795906E+00
(PID.TID 0000.0001)  ploadbar=  1.01066947089130E+05
 cg2d: Sum(rhs),rhsMax =  -4.64285552176326E+01  1.41343194771707E+00
(PID.TID 0000.0001)  ploadbar=  1.01066632918621E+05
 cg2d: Sum(rhs),rhsMax =  -4.67604771555852E+01  1.40360869410864E+00
(PID.TID 0000.0001)  ploadbar=  1.01066318748111E+05
 cg2d: Sum(rhs),rhsMax =  -4.71079575476953E+01  1.39340397452747E+00
(PID.TID 0000.0001)  ploadbar=  1.01066523597464E+05
 cg2d: Sum(rhs),rhsMax =  -4.75090578192297E+01  1.38172497050379E+00
(PID.TID 0000.0001)  ploadbar=  1.01066728446818E+05
 cg2d: Sum(rhs),rhsMax =  -4.79895447128258E+01  1.36791357228050E+00
(PID.TID 0000.0001)  ploadbar=  1.01066933296171E+05
 cg2d: Sum(rhs),rhsMax =  -4.85549922789130E+01  1.35194809454911E+00
(PID.TID 0000.0001)  ploadbar=  1.01067138145524E+05
 cg2d: Sum(rhs),rhsMax =  -4.92214422397797E+01  1.33355060695219E+00
(PID.TID 0000.0001)  ploadbar=  1.01067342994877E+05
 cg2d: Sum(rhs),rhsMax =  -5.00027884694445E+01  1.31256435084999E+00
(PID.TID 0000.0001)  ploadbar=  1.01067547844231E+05
 cg2d: Sum(rhs),rhsMax =  -5.09053599605570E+01  1.28920325314635E+00
(PID.TID 0000.0001)  ploadbar=  1.01066804910001E+05
 cg2d: Sum(rhs),rhsMax =  -5.19290868899988E+01  1.26375375017914E+00
(PID.TID 0000.0001)  ploadbar=  1.01066061975771E+05
 cg2d: Sum(rhs),rhsMax =  -5.30967722322500E+01  1.23597429658654E+00
(PID.TID 0000.0001)  ploadbar=  1.01065319041542E+05
 cg2d: Sum(rhs),rhsMax =  -5.43370779955862E+01  1.20781274183467E+00
(PID.TID 0000.0001)  ploadbar=  1.01064576107312E+05
 cg2d: Sum(rhs),rhsMax =  -5.32236228517372E+01  1.23316702325602E+00
(PID.TID 0000.0001)  ploadbar=  1.01063833173082E+05
 cg2d: Sum(rhs),rhsMax =  -5.20942827144900E+01  1.26002360932963E+00
(PID.TID 0000.0001)  ploadbar=  1.01063090238853E+05
 cg2d: Sum(rhs),rhsMax =  -5.10371490223748E+01  1.28623224841041E+00
(PID.TID 0000.0001)  ploadbar=  1.01063379898394E+05
 cg2d: Sum(rhs),rhsMax =  -5.00398418868931E+01  1.31195911263276E+00
(PID.TID 0000.0001)  ploadbar=  1.01063669557936E+05
 cg2d: Sum(rhs),rhsMax =  -4.91251007356790E+01  1.33645159533478E+00
(PID.TID 0000.0001)  ploadbar=  1.01063959217477E+05
 cg2d: Sum(rhs),rhsMax =  -4.82922479689599E+01  1.35952973103825E+00
(PID.TID 0000.0001)  ploadbar=  1.01064248877018E+05
 cg2d: Sum(rhs),rhsMax =  -4.75336018066115E+01  1.38122356847983E+00
(PID.TID 0000.0001)  ploadbar=  1.01064538536560E+05
 cg2d: Sum(rhs),rhsMax =  -4.68380731113941E+01  1.40169760451162E+00
(PID.TID 0000.0001)  ploadbar=  1.01064828196101E+05
 cg2d: Sum(rhs),rhsMax =  -4.62087053042098E+01  1.42077168321757E+00
(PID.TID 0000.0001)  ploadbar=  1.01065356269236E+05
 cg2d: Sum(rhs),rhsMax =  -4.56206078688935E+01  1.43908188216092E+00
(PID.TID 0000.0001)  ploadbar=  1.01065884342370E+05
 cg2d: Sum(rhs),rhsMax =  -4.50705813450370E+01  1.45663896511687E+00
(PID.TID 0000.0001)  ploadbar=  1.01066412415505E+05
 cg2d: Sum(rhs),rhsMax =  -4.45578048997732E+01  1.47338711341123E+00
(PID.TID 0000.0001)  ploadbar=  1.01066940488639E+05
 cg2d: Sum(rhs),rhsMax =  -4.40842259337123E+01  1.48918799499740E+00
(PID.TID 0000.0001)  ploadbar=  1.01067468561774E+05
 cg2d: Sum(rhs),rhsMax =  -4.36516343458875E+01  1.50390496984540E+00
(PID.TID 0000.0001)  ploadbar=  1.01067996634908E+05
 cg2d: Sum(rhs),rhsMax =  -4.32555859275407E+01  1.51759797566499E+00
(PID.TID 0000.0001)  ploadbar=  1.01069738467390E+05
 cg2d: Sum(rhs),rhsMax =  -4.29037419086686E+01  1.52992439823819E+00
(PID.TID 0000.0001)  ploadbar=  1.01071480299873E+05
 cg2d: Sum(rhs),rhsMax =  -4.25839268939730E+01  1.54124908238364E+00
(PID.TID 0000.0001)  ploadbar=  1.01073222132355E+05
 cg2d: Sum(rhs),rhsMax =  -4.22967571058083E+01  1.55149995295103E+00
(PID.TID 0000.0001)  ploadbar=  1.01074963964837E+05
 cg2d: Sum(rhs),rhsMax =  -4.20388388479311E+01  1.56075736924952E+00
(PID.TID 0000.0001)  ploadbar=  1.01076705797319E+05
 cg2d: Sum(rhs),rhsMax =  -4.18113599160196E+01  1.56893644959580E+00
(PID.TID 0000.0001)  ploadbar=  1.01078447629801E+05
 cg2d: Sum(rhs),rhsMax =  -4.15841948085614E+01  1.57732511326994E+00
(PID.TID 0000.0001)  ploadbar=  1.01080620880506E+05
 cg2d: Sum(rhs),rhsMax =  -4.13659927497086E+01  1.58559445085536E+00
(PID.TID 0000.0001)  ploadbar=  1.01082794131211E+05
 cg2d: Sum(rhs),rhsMax =  -4.11531910350075E+01  1.59387167796381E+00
(PID.TID 0000.0001)  ploadbar=  1.01084967381915E+05
 cg2d: Sum(rhs),rhsMax =  -4.09498531816835E+01  1.60198607403767E+00
(PID.TID 0000.0001)  ploadbar=  1.01087140632620E+05
 cg2d: Sum(rhs),rhsMax =  -4.07647534771776E+01  1.60957275221382E+00
(PID.TID 0000.0001)  ploadbar=  1.01089313883325E+05
 cg2d: Sum(rhs),rhsMax =  -4.06047333328332E+01  1.61634057859567E+00
(PID.TID 0000.0001)  ploadbar=  1.01091487134029E+05
 cg2d: Sum(rhs),rhsMax =  -4.04594149051121E+01  1.62251181823427E+00
(PID.TID 0000.0001)  ploadbar=  1.01093559835072E+05
 cg2d: Sum(rhs),rhsMax =  -4.03297747579218E+01  1.62802440348376E+00
(PID.TID 0000.0001)  ploadbar=  1.01095632536115E+05
 cg2d: Sum(rhs),rhsMax =  -4.02094867632157E+01  1.63312182854049E+00
(PID.TID 0000.0001)  ploadbar=  1.01097705237158E+05
 cg2d: Sum(rhs),rhsMax =  -4.00951778687901E+01  1.63793131249143E+00
(PID.TID 0000.0001)  ploadbar=  1.01099777938200E+05
 cg2d: Sum(rhs),rhsMax =  -3.99843859239428E+01  1.64254999694709E+00
(PID.TID 0000.0001)  ploadbar=  1.01101850639243E+05
 cg2d: Sum(rhs),rhsMax =  -3.98690986755411E+01  1.64730245651838E+00
(PID.TID 0000.0001)  ploadbar=  1.01103923340286E+05
 cg2d: Sum(rhs),rhsMax =  -3.97255281332588E+01  1.65331388515867E+00
(PID.TID 0000.0001)  ploadbar=  1.01105917522678E+05
 cg2d: Sum(rhs),rhsMax =  -3.95632204473332E+01  1.66020065176071E+00
(PID.TID 0000.0001)  ploadbar=  1.01107911705070E+05
 cg2d: Sum(rhs),rhsMax =  -3.93770996979448E+01  1.66818387796188E+00
(PID.TID 0000.0001)  ploadbar=  1.01109905887462E+05
 cg2d: Sum(rhs),rhsMax =  -3.91679536805692E+01  1.67725340774899E+00
(PID.TID 0000.0001)  ploadbar=  1.01111900069854E+05
 cg2d: Sum(rhs),rhsMax =  -3.89388775785610E+01  1.68730093858041E+00
(PID.TID 0000.0001)  ploadbar=  1.01113894252245E+05
 cg2d: Sum(rhs),rhsMax =  -3.86945440649057E+01  1.69814588017750E+00
(PID.TID 0000.0001)  ploadbar=  1.01115888434637E+05
 cg2d: Sum(rhs),rhsMax =  -3.84220378793519E+01  1.71030884816027E+00
(PID.TID 0000.0001)  ploadbar=  1.01118159780462E+05
 cg2d: Sum(rhs),rhsMax =  -3.81183226397944E+01  1.72397895570922E+00
(PID.TID 0000.0001)  ploadbar=  1.01120431126288E+05
 cg2d: Sum(rhs),rhsMax =  -3.77873586925045E+01  1.73903919523936E+00
(PID.TID 0000.0001)  ploadbar=  1.01122702472113E+05
 cg2d: Sum(rhs),rhsMax =  -3.74289168995588E+01  1.75557006526204E+00
(PID.TID 0000.0001)  ploadbar=  1.01124973817938E+05
 cg2d: Sum(rhs),rhsMax =  -3.70443196599319E+01  1.77358100522899E+00
(PID.TID 0000.0001)  ploadbar=  1.01127245163763E+05
 cg2d: Sum(rhs),rhsMax =  -3.66356567858759E+01  1.79305320824214E+00
(PID.TID 0000.0001)  ploadbar=  1.01129516509588E+05
 cg2d: Sum(rhs),rhsMax =  -3.61895831702755E+01  1.81493863985880E+00
(PID.TID 0000.0001)  ploadbar=  1.01130659557137E+05
 cg2d: Sum(rhs),rhsMax =  -3.57208770540005E+01  1.83863318948988E+00
(PID.TID 0000.0001)  ploadbar=  1.01131802604686E+05
 cg2d: Sum(rhs),rhsMax =  -3.52380316151403E+01  1.86379834295301E+00
(PID.TID 0000.0001)  ploadbar=  1.01132945652235E+05
 cg2d: Sum(rhs),rhsMax =  -3.47614708747401E+01  1.88939704735307E+00
(PID.TID 0000.0001)  ploadbar=  1.01134088699784E+05
 cg2d: Sum(rhs),rhsMax =  -3.43180027067308E+01  1.91392855852174E+00
(PID.TID 0000.0001)  ploadbar=  1.01135231747333E+05
 cg2d: Sum(rhs),rhsMax =  -3.39292048299070E+01  1.93604337192298E+00
(PID.TID 0000.0001)  ploadbar=  1.01136374794883E+05
 cg2d: Sum(rhs),rhsMax =  -3.36455639089796E+01  1.95249728977455E+00
(PID.TID 0000.0001)  ploadbar=  1.01137932159011E+05
 cg2d: Sum(rhs),rhsMax =  -3.34815451298446E+01  1.96213932472193E+00
(PID.TID 0000.0001)  ploadbar=  1.01139489523139E+05
 cg2d: Sum(rhs),rhsMax =  -3.34513338351432E+01  1.96393247317269E+00
(PID.TID 0000.0001)  ploadbar=  1.01141046887267E+05
 cg2d: Sum(rhs),rhsMax =  -3.35630103738251E+01  1.95736123863611E+00
(PID.TID 0000.0001)  ploadbar=  1.01142604251395E+05
 cg2d: Sum(rhs),rhsMax =  -3.38104619350299E+01  1.94294103907581E+00
(PID.TID 0000.0001)  ploadbar=  1.01144161615524E+05
 cg2d: Sum(rhs),rhsMax =  -3.41855366676091E+01  1.92147653314250E+00
(PID.TID 0000.0001)  ploadbar=  1.01145718979652E+05
 cg2d: Sum(rhs),rhsMax =  -3.46686375383320E+01  1.89461479042322E+00
(PID.TID 0000.0001)  ploadbar=  1.01146384758125E+05
 cg2d: Sum(rhs),rhsMax =  -3.52546102802674E+01  1.86307093051018E+00
(PID.TID 0000.0001)  ploadbar=  1.01147050536597E+05
 cg2d: Sum(rhs),rhsMax =  -3.59417181382403E+01  1.82741491464363E+00
(PID.TID 0000.0001)  ploadbar=  1.01147716315070E+05
 cg2d: Sum(rhs),rhsMax =  -3.67317916271843E+01  1.78807769127062E+00
(PID.TID 0000.0001)  ploadbar=  1.01148382093543E+05
 cg2d: Sum(rhs),rhsMax =  -3.76263063885775E+01  1.74553630936393E+00
(PID.TID 0000.0001)  ploadbar=  1.01149047872016E+05
 cg2d: Sum(rhs),rhsMax =  -3.86159142758422E+01  1.70076857848880E+00
(PID.TID 0000.0001)  ploadbar=  1.01149713650489E+05
 cg2d: Sum(rhs),rhsMax =  -3.97021654311738E+01  1.65414986633360E+00
(PID.TID 0000.0001)  ploadbar=  1.01149938498112E+05
 cg2d: Sum(rhs),rhsMax =  -4.08715426248247E+01  1.60668537910579E+00
(PID.TID 0000.0001)  ploadbar=  1.01150163345735E+05
 cg2d: Sum(rhs),rhsMax =  -4.21038412824548E+01  1.55946999829023E+00
(PID.TID 0000.0001)  ploadbar=  1.01150388193358E+05
 cg2d: Sum(rhs),rhsMax =  -4.33942921397522E+01  1.51284910353084E+00
(PID.TID 0000.0001)  ploadbar=  1.01150613040981E+05
 cg2d: Sum(rhs),rhsMax =  -4.47290051209618E+01  1.46740138458323E+00
(PID.TID 0000.0001)  ploadbar=  1.01150837888604E+05
 cg2d: Sum(rhs),rhsMax =  -4.60890006147568E+01  1.42374032026216E+00
(PID.TID 0000.0001)  ploadbar=  1.01151062736228E+05
 cg2d: Sum(rhs),rhsMax =  -4.74928574386047E+01  1.38136182243503E+00
(PID.TID 0000.0001)  ploadbar=  1.01151058725651E+05
 cg2d: Sum(rhs),rhsMax =  -4.91288233314636E+01  1.33513060767465E+00
(PID.TID 0000.0001)  ploadbar=  1.01151054715073E+05
 cg2d: Sum(rhs),rhsMax =  -5.12232425947728E+01  1.28036009880817E+00
(PID.TID 0000.0001)  ploadbar=  1.01151050704496E+05
 cg2d: Sum(rhs),rhsMax =  -5.37573143566668E+01  1.21987222451269E+00
(PID.TID 0000.0001)  ploadbar=  1.01151046693919E+05
 cg2d: Sum(rhs),rhsMax =  -5.66940569194586E+01  1.15658505567635E+00
(PID.TID 0000.0001)  ploadbar=  1.01151042683342E+05
 cg2d: Sum(rhs),rhsMax =  -6.00047742544318E+01  1.09269936698399E+00
(PID.TID 0000.0001)  ploadbar=  1.01151038672765E+05
 cg2d: Sum(rhs),rhsMax =  -6.16577189238838E+01  1.06333810988331E+00
(PID.TID 0000.0001)  ploadbar=  1.01151425596515E+05
 cg2d: Sum(rhs),rhsMax =  -5.92330335634677E+01  1.10679372953711E+00
(PID.TID 0000.0001)  ploadbar=  1.01151812520265E+05
 cg2d: Sum(rhs),rhsMax =  -5.76098790146333E+01  1.13789904634492E+00
(PID.TID 0000.0001)  ploadbar=  1.01152199444016E+05
 cg2d: Sum(rhs),rhsMax =  -5.66815142009680E+01  1.15644878312328E+00
(PID.TID 0000.0001)  ploadbar=  1.01152586367766E+05
 cg2d: Sum(rhs),rhsMax =  -5.60365068128536E+01  1.16966166809001E+00
(PID.TID 0000.0001)  ploadbar=  1.01152973291516E+05
 cg2d: Sum(rhs),rhsMax =  -5.54716064124504E+01  1.18146125889752E+00
(PID.TID 0000.0001)  ploadbar=  1.01153360215267E+05
 cg2d: Sum(rhs),rhsMax =  -5.49173424049423E+01  1.19330929014555E+00
(PID.TID 0000.0001)  ploadbar=  1.01152903098197E+05
 cg2d: Sum(rhs),rhsMax =  -5.43861022796853E+01  1.20491251853198E+00
(PID.TID 0000.0001)  ploadbar=  1.01152445981128E+05
 cg2d: Sum(rhs),rhsMax =  -5.38733899679381E+01  1.21634669052428E+00
(PID.TID 0000.0001)  ploadbar=  1.01151988864059E+05
 cg2d: Sum(rhs),rhsMax =  -5.33804950568835E+01  1.22756131192049E+00
(PID.TID 0000.0001)  ploadbar=  1.01151531746990E+05
 cg2d: Sum(rhs),rhsMax =  -5.29041479327664E+01  1.23861129798210E+00
(PID.TID 0000.0001)  ploadbar=  1.01151074629921E+05
 cg2d: Sum(rhs),rhsMax =  -5.24603468107837E+01  1.24909676085102E+00
(PID.TID 0000.0001)  ploadbar=  1.01150617512851E+05
 cg2d: Sum(rhs),rhsMax =  -5.21170879001047E+01  1.25729054219041E+00
(PID.TID 0000.0001)  ploadbar=  1.01150405509316E+05
 cg2d: Sum(rhs),rhsMax =  -5.18243581402887E+01  1.26431563042216E+00
(PID.TID 0000.0001)  ploadbar=  1.01150193505780E+05
 cg2d: Sum(rhs),rhsMax =  -5.16266603895005E+01  1.26903585459279E+00
(PID.TID 0000.0001)  ploadbar=  1.01149981502245E+05
 cg2d: Sum(rhs),rhsMax =  -5.15912595967119E+01  1.26973377657238E+00
(PID.TID 0000.0001)  ploadbar=  1.01149769498709E+05
 cg2d: Sum(rhs),rhsMax =  -5.16522947123406E+01  1.26800728898506E+00
(PID.TID 0000.0001)  ploadbar=  1.01149557495173E+05
 cg2d: Sum(rhs),rhsMax =  -5.17415741005219E+01  1.26554045683815E+00
(PID.TID 0000.0001)  ploadbar=  1.01149345491638E+05
 cg2d: Sum(rhs),rhsMax =  -5.16214975590478E+01  1.26831340859877E+00
(PID.TID 0000.0001)  ploadbar=  1.01148151061403E+05
 cg2d: Sum(rhs),rhsMax =  -5.12259599326533E+01  1.27804045944973E+00
(PID.TID 0000.0001)  ploadbar=  1.01146956631168E+05
 cg2d: Sum(rhs),rhsMax =  -5.05462592523188E+01  1.29526412282847E+00
(PID.TID 0000.0001)  ploadbar=  1.01145762200933E+05
 cg2d: Sum(rhs),rhsMax =  -4.96366713651237E+01  1.31914515529369E+00
(PID.TID 0000.0001)  ploadbar=  1.01144567770698E+05
 cg2d: Sum(rhs),rhsMax =  -4.83375679723801E+01  1.35485652898866E+00
(PID.TID 0000.0001)  ploadbar=  1.01143373340463E+05
 cg2d: Sum(rhs),rhsMax =  -4.70565235482431E+01  1.39211088457871E+00
(PID.TID 0000.0001)  ploadbar=  1.01142178910229E+05
 cg2d: Sum(rhs),rhsMax =  -4.56959430321278E+01  1.43389081770348E+00
(PID.TID 0000.0001)  ploadbar=  1.01141401859691E+05
 cg2d: Sum(rhs),rhsMax =  -4.43194253012395E+01  1.47870985697041E+00
(PID.TID 0000.0001)  ploadbar=  1.01140624809155E+05
 cg2d: Sum(rhs),rhsMax =  -4.29589253803097E+01  1.52577238246036E+00
(PID.TID 0000.0001)  ploadbar=  1.01139847758618E+05
 cg2d: Sum(rhs),rhsMax =  -4.16181680316888E+01  1.57509756111067E+00
(PID.TID 0000.0001)  ploadbar=  1.01139070708081E+05
 cg2d: Sum(rhs),rhsMax =  -4.03178569583657E+01  1.62599916942315E+00
(PID.TID 0000.0001)  ploadbar=  1.01138293657544E+05
 cg2d: Sum(rhs),rhsMax =  -3.90692466417725E+01  1.67798943883630E+00
(PID.TID 0000.0001)  ploadbar=  1.01137516607007E+05
 cg2d: Sum(rhs),rhsMax =  -3.78374271441222E+01  1.73264926255113E+00
(PID.TID 0000.0001)  ploadbar=  1.01136493715836E+05
 cg2d: Sum(rhs),rhsMax =  -3.66132091752314E+01  1.79061187756518E+00
(PID.TID 0000.0001)  ploadbar=  1.01135470824665E+05
 cg2d: Sum(rhs),rhsMax =  -3.54719253444624E+01  1.84824332356852E+00
(PID.TID 0000.0001)  ploadbar=  1.01134447933494E+05
 cg2d: Sum(rhs),rhsMax =  -3.44109185193486E+01  1.90523649002107E+00
(PID.TID 0000.0001)  ploadbar=  1.01133425042324E+05
 cg2d: Sum(rhs),rhsMax =  -3.34094880421974E+01  1.96233015870979E+00
(PID.TID 0000.0001)  ploadbar=  1.01132402151153E+05
 cg2d: Sum(rhs),rhsMax =  -3.24601004911724E+01  2.01968058758866E+00
(PID.TID 0000.0001)  ploadbar=  1.01131379259982E+05
 cg2d: Sum(rhs),rhsMax =  -3.15647091127388E+01  2.07683225779113E+00
(PID.TID 0000.0001)  ploadbar=  1.01131016250265E+05
 cg2d: Sum(rhs),rhsMax =  -3.07271628415656E+01  2.13319339928130E+00
(PID.TID 0000.0001)  ploadbar=  1.01130653240549E+05
 cg2d: Sum(rhs),rhsMax =  -2.99535768113114E+01  2.18791882994166E+00
(PID.TID 0000.0001)  ploadbar=  1.01130290230832E+05
 cg2d: Sum(rhs),rhsMax =  -2.92448812289494E+01  2.24044615741363E+00
(PID.TID 0000.0001)  ploadbar=  1.01129927221115E+05
 cg2d: Sum(rhs),rhsMax =  -2.85992895036351E+01  2.29039667602956E+00
(PID.TID 0000.0001)  ploadbar=  1.01129564211398E+05
 cg2d: Sum(rhs),rhsMax =  -2.80134174666898E+01  2.33753600261213E+00
(PID.TID 0000.0001)  ploadbar=  1.01129201201681E+05
 cg2d: Sum(rhs),rhsMax =  -2.74811528394445E+01  2.38219368672119E+00
(PID.TID 0000.0001)  ploadbar=  1.01129176840250E+05
 cg2d: Sum(rhs),rhsMax =  -2.69980149582414E+01  2.42435588039400E+00
(PID.TID 0000.0001)  ploadbar=  1.01129152478819E+05
 cg2d: Sum(rhs),rhsMax =  -2.65629113156975E+01  2.46374862758172E+00
(PID.TID 0000.0001)  ploadbar=  1.01129128117388E+05
 cg2d: Sum(rhs),rhsMax =  -2.61735525637870E+01  2.50022918369474E+00
(PID.TID 0000.0001)  ploadbar=  1.01129103755957E+05
 cg2d: Sum(rhs),rhsMax =  -2.58403871364691E+01  2.53244151189292E+00
(PID.TID 0000.0001)  ploadbar=  1.01129079394525E+05
 cg2d: Sum(rhs),rhsMax =  -2.55588627297345E+01  2.56045732721592E+00
(PID.TID 0000.0001)  ploadbar=  1.01129055033094E+05
 cg2d: Sum(rhs),rhsMax =  -2.53317884851901E+01  2.58357613036306E+00
(PID.TID 0000.0001)  ploadbar=  1.01128435533051E+05
 cg2d: Sum(rhs),rhsMax =  -2.51464894500230E+01  2.60280689087998E+00
(PID.TID 0000.0001)  ploadbar=  1.01127816033008E+05
 cg2d: Sum(rhs),rhsMax =  -2.49888660389416E+01  2.61942847974252E+00
(PID.TID 0000.0001)  ploadbar=  1.01127196532965E+05
 cg2d: Sum(rhs),rhsMax =  -2.48404448631277E+01  2.63528348445873E+00
(PID.TID 0000.0001)  ploadbar=  1.01126577032922E+05
 cg2d: Sum(rhs),rhsMax =  -2.47064795506474E+01  2.64976873271225E+00
(PID.TID 0000.0001)  ploadbar=  1.01125957532880E+05
 cg2d: Sum(rhs),rhsMax =  -2.45869914141915E+01  2.66282814467600E+00
(PID.TID 0000.0001)  ploadbar=  1.01125338032837E+05
 cg2d: Sum(rhs),rhsMax =  -2.44861322834311E+01  2.67392851871292E+00
(PID.TID 0000.0001)  ploadbar=  1.01123930954953E+05
 cg2d: Sum(rhs),rhsMax =  -2.44026530228132E+01  2.68314644237639E+00
(PID.TID 0000.0001)  ploadbar=  1.01122523877070E+05
 cg2d: Sum(rhs),rhsMax =  -2.43340612371423E+01  2.69071075581111E+00
(PID.TID 0000.0001)  ploadbar=  1.01121116799187E+05
 cg2d: Sum(rhs),rhsMax =  -2.42770311911264E+01  2.69695638758585E+00
(PID.TID 0000.0001)  ploadbar=  1.01119709721303E+05
 cg2d: Sum(rhs),rhsMax =  -2.42289475693624E+01  2.70215077962825E+00
(PID.TID 0000.0001)  ploadbar=  1.01118302643420E+05
 cg2d: Sum(rhs),rhsMax =  -2.41873796057528E+01  2.70654279024696E+00
(PID.TID 0000.0001)  ploadbar=  1.01116895565537E+05
 cg2d: Sum(rhs),rhsMax =  -2.41427387320379E+01  2.71124483219212E+00
(PID.TID 0000.0001)  ploadbar=  1.01115522792191E+05
 cg2d: Sum(rhs),rhsMax =  -2.41004583570865E+01  2.71564377431034E+00
(PID.TID 0000.0001)  ploadbar=  1.01114150018846E+05
 cg2d: Sum(rhs),rhsMax =  -2.40676580406393E+01  2.71892574947209E+00
(PID.TID 0000.0001)  ploadbar=  1.01112777245501E+05
 cg2d: Sum(rhs),rhsMax =  -2.40491194414428E+01  2.72054089898836E+00
(PID.TID 0000.0001)  ploadbar=  1.01111404472156E+05
 cg2d: Sum(rhs),rhsMax =  -2.40534037780371E+01  2.71950995411820E+00
(PID.TID 0000.0001)  ploadbar=  1.01110031698811E+05
 cg2d: Sum(rhs),rhsMax =  -2.40734737917330E+01  2.71662716043584E+00
(PID.TID 0000.0001)  ploadbar=  1.01108658925465E+05
 cg2d: Sum(rhs),rhsMax =  -2.41124310387369E+01  2.71188243246991E+00
(PID.TID 0000.0001)  ploadbar=  1.01107490639403E+05
 cg2d: Sum(rhs),rhsMax =  -2.41666944244399E+01  2.70568776824274E+00
(PID.TID 0000.0001)  ploadbar=  1.01106322353341E+05
 cg2d: Sum(rhs),rhsMax =  -2.42350917617496E+01  2.69818650997839E+00
(PID.TID 0000.0001)  ploadbar=  1.01105154067278E+05
 cg2d: Sum(rhs),rhsMax =  -2.43159096765597E+01  2.68957720473929E+00
(PID.TID 0000.0001)  ploadbar=  1.01103985781216E+05
 cg2d: Sum(rhs),rhsMax =  -2.44074163623808E+01  2.68006623960822E+00
(PID.TID 0000.0001)  ploadbar=  1.01102817495154E+05
 cg2d: Sum(rhs),rhsMax =  -2.45080282376146E+01  2.66984323565395E+00
(PID.TID 0000.0001)  ploadbar=  1.01101649209091E+05
 cg2d: Sum(rhs),rhsMax =  -2.46126419605788E+01  2.65927119529964E+00
(PID.TID 0000.0001)  ploadbar=  1.01100497555610E+05
 cg2d: Sum(rhs),rhsMax =  -2.47203924687940E+01  2.64843902549268E+00
(PID.TID 0000.0001)  ploadbar=  1.01099345902128E+05
 cg2d: Sum(rhs),rhsMax =  -2.48310165062657E+01  2.63737252899022E+00
(PID.TID 0000.0001)  ploadbar=  1.01098194248647E+05
 cg2d: Sum(rhs),rhsMax =  -2.49451158488784E+01  2.62601486401334E+00
(PID.TID 0000.0001)  ploadbar=  1.01097042595166E+05
 cg2d: Sum(rhs),rhsMax =  -2.50629123298520E+01  2.61434858663020E+00
(PID.TID 0000.0001)  ploadbar=  1.01095890941684E+05
 cg2d: Sum(rhs),rhsMax =  -2.51845388889021E+01  2.60236556495616E+00
(PID.TID 0000.0001)  ploadbar=  1.01094739288203E+05
 cg2d: Sum(rhs),rhsMax =  -2.53146220879444E+01  2.58966376966157E+00
(PID.TID 0000.0001)  ploadbar=  1.01093022608513E+05
 cg2d: Sum(rhs),rhsMax =  -2.54482674667183E+01  2.57674899141445E+00
(PID.TID 0000.0001)  ploadbar=  1.01091305928823E+05
 cg2d: Sum(rhs),rhsMax =  -2.55845061863004E+01  2.56371628602223E+00
(PID.TID 0000.0001)  ploadbar=  1.01089589249133E+05
 cg2d: Sum(rhs),rhsMax =  -2.57214142748886E+01  2.55075827770547E+00
(PID.TID 0000.0001)  ploadbar=  1.01087872569443E+05
 cg2d: Sum(rhs),rhsMax =  -2.58580940515125E+01  2.53795852171471E+00
(PID.TID 0000.0001)  ploadbar=  1.01086155889754E+05
 cg2d: Sum(rhs),rhsMax =  -2.59919872183021E+01  2.52555138070110E+00
(PID.TID 0000.0001)  ploadbar=  1.01084439210064E+05
 cg2d: Sum(rhs),rhsMax =  -2.61154787136718E+01  2.51419633057139E+00
(PID.TID 0000.0001)  ploadbar=  1.01084061144732E+05
 cg2d: Sum(rhs),rhsMax =  -2.62305134345260E+01  2.50367273257739E+00
(PID.TID 0000.0001)  ploadbar=  1.01083683079401E+05
 cg2d: Sum(rhs),rhsMax =  -2.63370942200059E+01  2.49395463036927E+00
(PID.TID 0000.0001)  ploadbar=  1.01083305014070E+05
 cg2d: Sum(rhs),rhsMax =  -2.64406503439712E+01  2.48451128785795E+00
(PID.TID 0000.0001)  ploadbar=  1.01082926948738E+05
 cg2d: Sum(rhs),rhsMax =  -2.65400957040980E+01  2.47543095011038E+00
(PID.TID 0000.0001)  ploadbar=  1.01082548883407E+05
 cg2d: Sum(rhs),rhsMax =  -2.66360608549746E+01  2.46664371859082E+00
(PID.TID 0000.0001)  ploadbar=  1.01082170818075E+05
 cg2d: Sum(rhs),rhsMax =  -2.67389581193930E+01  2.45744092338397E+00
(PID.TID 0000.0001)  ploadbar=  1.01081397867251E+05
 cg2d: Sum(rhs),rhsMax =  -2.68506185723391E+01  2.44766260360993E+00
(PID.TID 0000.0001)  ploadbar=  1.01080624916427E+05
 cg2d: Sum(rhs),rhsMax =  -2.69691035032465E+01  2.43749480170126E+00
(PID.TID 0000.0001)  ploadbar=  1.01079851965603E+05
 cg2d: Sum(rhs),rhsMax =  -2.70934965917245E+01  2.42702357518313E+00
(PID.TID 0000.0001)  ploadbar=  1.01079079014778E+05
 cg2d: Sum(rhs),rhsMax =  -2.72234307376368E+01  2.41628248240460E+00
(PID.TID 0000.0001)  ploadbar=  1.01078306063954E+05
 cg2d: Sum(rhs),rhsMax =  -2.73587780095767E+01  2.40528208824424E+00
(PID.TID 0000.0001)  ploadbar=  1.01077533113129E+05
 cg2d: Sum(rhs),rhsMax =  -2.74944018918320E+01  2.39428934665025E+00
(PID.TID 0000.0001)  ploadbar=  1.01077195217701E+05
 cg2d: Sum(rhs),rhsMax =  -2.76293435326572E+01  2.38337814912612E+00
(PID.TID 0000.0001)  ploadbar=  1.01076857322273E+05
 cg2d: Sum(rhs),rhsMax =  -2.77647087351996E+01  2.37244895769037E+00
(PID.TID 0000.0001)  ploadbar=  1.01076519426845E+05
 cg2d: Sum(rhs),rhsMax =  -2.78984456668047E+01  2.36167182675273E+00
(PID.TID 0000.0001)  ploadbar=  1.01076181531416E+05
 cg2d: Sum(rhs),rhsMax =  -2.80294860387154E+01  2.35112918049261E+00
(PID.TID 0000.0001)  ploadbar=  1.01075843635988E+05
 cg2d: Sum(rhs),rhsMax =  -2.81575770069862E+01  2.34083309056904E+00
(PID.TID 0000.0001)  ploadbar=  1.01075505740560E+05
 cg2d: Sum(rhs),rhsMax =  -2.82836007622401E+01  2.33081743859431E+00
(PID.TID 0000.0001)  ploadbar=  1.01074733860763E+05
 cg2d: Sum(rhs),rhsMax =  -2.84065230191205E+01  2.32114547020503E+00
(PID.TID 0000.0001)  ploadbar=  1.01073961980966E+05
 cg2d: Sum(rhs),rhsMax =  -2.85281605445965E+01  2.31165459886828E+00
(PID.TID 0000.0001)  ploadbar=  1.01073190101169E+05
 cg2d: Sum(rhs),rhsMax =  -2.86494628322045E+01  2.30226310143055E+00
(PID.TID 0000.0001)  ploadbar=  1.01072418221371E+05
 cg2d: Sum(rhs),rhsMax =  -2.87709642838227E+01  2.29292277808646E+00
(PID.TID 0000.0001)  ploadbar=  1.01071646341574E+05
 cg2d: Sum(rhs),rhsMax =  -2.88938655089400E+01  2.28353260169114E+00
(PID.TID 0000.0001)  ploadbar=  1.01070874461777E+05
 cg2d: Sum(rhs),rhsMax =  -2.90171421635346E+01  2.27414715611201E+00
(PID.TID 0000.0001)  ploadbar=  1.01071143684117E+05
 cg2d: Sum(rhs),rhsMax =  -2.91400355658947E+01  2.26481637372149E+00
(PID.TID 0000.0001)  ploadbar=  1.01071412906457E+05
 cg2d: Sum(rhs),rhsMax =  -2.92632898933551E+01  2.25547330310444E+00
(PID.TID 0000.0001)  ploadbar=  1.01071682128797E+05
 cg2d: Sum(rhs),rhsMax =  -2.93870841467751E+01  2.24609979432825E+00
(PID.TID 0000.0001)  ploadbar=  1.01071951351137E+05
 cg2d: Sum(rhs),rhsMax =  -2.95110556386654E+01  2.23672215217151E+00
(PID.TID 0000.0001)  ploadbar=  1.01072220573476E+05
 cg2d: Sum(rhs),rhsMax =  -2.96361389708757E+01  2.22726624518181E+00
(PID.TID 0000.0001)  ploadbar=  1.01072489795816E+05
 cg2d: Sum(rhs),rhsMax =  -2.97678963120542E+01  2.21748550275743E+00
(PID.TID 0000.0001)  ploadbar=  1.01071474444831E+05
 cg2d: Sum(rhs),rhsMax =  -2.99045243177235E+01  2.20751724840463E+00
(PID.TID 0000.0001)  ploadbar=  1.01070459093846E+05
 cg2d: Sum(rhs),rhsMax =  -3.00455742612898E+01  2.19739171159332E+00
(PID.TID 0000.0001)  ploadbar=  1.01069443742860E+05
 cg2d: Sum(rhs),rhsMax =  -3.01905409698833E+01  2.18714794279207E+00
(PID.TID 0000.0001)  ploadbar=  1.01068428391875E+05
 cg2d: Sum(rhs),rhsMax =  -3.03393088865256E+01  2.17679652075883E+00
(PID.TID 0000.0001)  ploadbar=  1.01067413040889E+05
 cg2d: Sum(rhs),rhsMax =  -3.04915590186198E+01  2.16636392273866E+00
(PID.TID 0000.0001)  ploadbar=  1.01066397689904E+05
 cg2d: Sum(rhs),rhsMax =  -3.06454363299544E+01  2.15588305127310E+00
(PID.TID 0000.0001)  ploadbar=  1.01066324645351E+05
 cg2d: Sum(rhs),rhsMax =  -3.07998567314085E+01  2.14541981486824E+00
(PID.TID 0000.0001)  ploadbar=  1.01066251600798E+05
 cg2d: Sum(rhs),rhsMax =  -3.09525523013079E+01  2.13512209291322E+00
(PID.TID 0000.0001)  ploadbar=  1.01066178556244E+05
 cg2d: Sum(rhs),rhsMax =  -3.11030185238041E+01  2.12501093421410E+00
(PID.TID 0000.0001)  ploadbar=  1.01066105511691E+05
 cg2d: Sum(rhs),rhsMax =  -3.12512621999364E+01  2.11507584804663E+00
(PID.TID 0000.0001)  ploadbar=  1.01066032467138E+05
 cg2d: Sum(rhs),rhsMax =  -3.13973053743640E+01  2.10530681981791E+00
(PID.TID 0000.0001)  ploadbar=  1.01065959422585E+05
 cg2d: Sum(rhs),rhsMax =  -3.15422876734252E+01  2.09575262844885E+00
(PID.TID 0000.0001)  ploadbar=  1.01064580700647E+05
 cg2d: Sum(rhs),rhsMax =  -3.16857298306837E+01  2.08643346855908E+00
(PID.TID 0000.0001)  ploadbar=  1.01063201978709E+05
 cg2d: Sum(rhs),rhsMax =  -3.18247110049886E+01  2.07752676437839E+00
(PID.TID 0000.0001)  ploadbar=  1.01061823256771E+05
 cg2d: Sum(rhs),rhsMax =  -3.19579706249752E+01  2.06909675208647E+00
(PID.TID 0000.0001)  ploadbar=  1.01060444534833E+05
 cg2d: Sum(rhs),rhsMax =  -3.20842109803791E+01  2.06121179026467E+00
(PID.TID 0000.0001)  ploadbar=  1.01059065812896E+05
 cg2d: Sum(rhs),rhsMax =  -3.22024493204400E+01  2.05391551427088E+00
(PID.TID 0000.0001)  ploadbar=  1.01057687090958E+05
 cg2d: Sum(rhs),rhsMax =  -3.23136274480428E+01  2.04704832505601E+00
(PID.TID 0000.0001)  ploadbar=  1.01057266102706E+05
 cg2d: Sum(rhs),rhsMax =  -3.24213635519496E+01  2.04036777581562E+00
(PID.TID 0000.0001)  ploadbar=  1.01056845114454E+05
 cg2d: Sum(rhs),rhsMax =  -3.25249419787003E+01  2.03390440199687E+00
(PID.TID 0000.0001)  ploadbar=  1.01056424126202E+05
 cg2d: Sum(rhs),rhsMax =  -3.26237897618949E+01  2.02767799484219E+00
(PID.TID 0000.0001)  ploadbar=  1.01056003137950E+05
 cg2d: Sum(rhs),rhsMax =  -3.27171926297985E+01  2.02172146892387E+00
(PID.TID 0000.0001)  ploadbar=  1.01055582149698E+05
 cg2d: Sum(rhs),rhsMax =  -3.28051910781446E+01  2.01601991068264E+00
(PID.TID 0000.0001)  ploadbar=  1.01055161161446E+05
 cg2d: Sum(rhs),rhsMax =  -3.28900613532261E+01  2.01064112675873E+00
(PID.TID 0000.0001)  ploadbar=  1.01055209394536E+05
 cg2d: Sum(rhs),rhsMax =  -3.29741549761256E+01  2.00543468752977E+00
(PID.TID 0000.0001)  ploadbar=  1.01055257627626E+05
 cg2d: Sum(rhs),rhsMax =  -3.30587320248649E+01  2.00031669391749E+00
(PID.TID 0000.0001)  ploadbar=  1.01055305860717E+05
 cg2d: Sum(rhs),rhsMax =  -3.31433416360329E+01  1.99530506037740E+00
(PID.TID 0000.0001)  ploadbar=  1.01055354093806E+05
 cg2d: Sum(rhs),rhsMax =  -3.32276871452028E+01  1.99040497975192E+00
(PID.TID 0000.0001)  ploadbar=  1.01055402326897E+05
 cg2d: Sum(rhs),rhsMax =  -3.33116782519846E+01  1.98562016658291E+00
(PID.TID 0000.0001)  ploadbar=  1.01055450559987E+05
 cg2d: Sum(rhs),rhsMax =  -3.33919243535566E+01  1.98102040008307E+00
(PID.TID 0000.0001)  ploadbar=  1.01056212725166E+05
 cg2d: Sum(rhs),rhsMax =  -3.34684789362578E+01  1.97658790880381E+00
(PID.TID 0000.0001)  ploadbar=  1.01056974890345E+05
 cg2d: Sum(rhs),rhsMax =  -3.35441321716890E+01  1.97215242804729E+00
(PID.TID 0000.0001)  ploadbar=  1.01057737055523E+05
 cg2d: Sum(rhs),rhsMax =  -3.36192965994519E+01  1.96768524074145E+00
(PID.TID 0000.0001)  ploadbar=  1.01058499220702E+05
 cg2d: Sum(rhs),rhsMax =  -3.36934472010502E+01  1.96321271262339E+00
(PID.TID 0000.0001)  ploadbar=  1.01059261385881E+05
 cg2d: Sum(rhs),rhsMax =  -3.37663760407758E+01  1.95874542259729E+00
(PID.TID 0000.0001)  ploadbar=  1.01060023551060E+05
 cg2d: Sum(rhs),rhsMax =  -3.38390136925266E+01  1.95436882201604E+00
(PID.TID 0000.0001)  ploadbar=  1.01060578095882E+05
 cg2d: Sum(rhs),rhsMax =  -3.39084937893070E+01  1.95023062758823E+00
(PID.TID 0000.0001)  ploadbar=  1.01061132640703E+05
 cg2d: Sum(rhs),rhsMax =  -3.39770459092708E+01  1.94619067855795E+00
(PID.TID 0000.0001)  ploadbar=  1.01061687185524E+05
 cg2d: Sum(rhs),rhsMax =  -3.40458000288872E+01  1.94217676138799E+00
(PID.TID 0000.0001)  ploadbar=  1.01062241730345E+05
 cg2d: Sum(rhs),rhsMax =  -3.41160867256138E+01  1.93810649586889E+00
(PID.TID 0000.0001)  ploadbar=  1.01062796275166E+05
 cg2d: Sum(rhs),rhsMax =  -3.41896937362871E+01  1.93387293827891E+00
(PID.TID 0000.0001)  ploadbar=  1.01063350819987E+05
 cg2d: Sum(rhs),rhsMax =  -3.42682661630920E+01  1.92932704853090E+00
(PID.TID 0000.0001)  ploadbar=  1.01064709760665E+05
 cg2d: Sum(rhs),rhsMax =  -3.43500692024242E+01  1.92456355970098E+00
(PID.TID 0000.0001)  ploadbar=  1.01066068701343E+05
 cg2d: Sum(rhs),rhsMax =  -3.44328223123162E+01  1.91970931466107E+00
(PID.TID 0000.0001)  ploadbar=  1.01067427642020E+05
 cg2d: Sum(rhs),rhsMax =  -3.45155088564788E+01  1.91481720792706E+00
(PID.TID 0000.0001)  ploadbar=  1.01068786582698E+05
 cg2d: Sum(rhs),rhsMax =  -3.45978255960392E+01  1.90989751715058E+00
(PID.TID 0000.0001)  ploadbar=  1.01070145523376E+05
 cg2d: Sum(rhs),rhsMax =  -3.46792661428788E+01  1.90497558011917E+00
(PID.TID 0000.0001)  ploadbar=  1.01071504464053E+05
 cg2d: Sum(rhs),rhsMax =  -3.47648443316602E+01  1.89994186034702E+00
(PID.TID 0000.0001)  ploadbar=  1.01072855019812E+05
 cg2d: Sum(rhs),rhsMax =  -3.48571327666844E+01  1.89465533022430E+00
(PID.TID 0000.0001)  ploadbar=  1.01074205575570E+05
 cg2d: Sum(rhs),rhsMax =  -3.49564800825554E+01  1.88909727676830E+00
(PID.TID 0000.0001)  ploadbar=  1.01075556131328E+05
 cg2d: Sum(rhs),rhsMax =  -3.50626820913763E+01  1.88327836521532E+00
(PID.TID 0000.0001)  ploadbar=  1.01076906687086E+05
 cg2d: Sum(rhs),rhsMax =  -3.51749626257460E+01  1.87723900653850E+00
(PID.TID 0000.0001)  ploadbar=  1.01078257242845E+05
 cg2d: Sum(rhs),rhsMax =  -3.52924589540458E+01  1.87102212840574E+00
(PID.TID 0000.0001)  ploadbar=  1.01079607798603E+05
 cg2d: Sum(rhs),rhsMax =  -3.54089563174799E+01  1.86487427214334E+00
(PID.TID 0000.0001)  ploadbar=  1.01081336288599E+05
 cg2d: Sum(rhs),rhsMax =  -3.55212885604202E+01  1.85895330146201E+00
(PID.TID 0000.0001)  ploadbar=  1.01083064778595E+05
 cg2d: Sum(rhs),rhsMax =  -3.56290038044134E+01  1.85327265140050E+00
(PID.TID 0000.0001)  ploadbar=  1.01084793268592E+05
 cg2d: Sum(rhs),rhsMax =  -3.57332231845813E+01  1.84776874079726E+00
(PID.TID 0000.0001)  ploadbar=  1.01086521758588E+05
 cg2d: Sum(rhs),rhsMax =  -3.58355355529623E+01  1.84236180687211E+00
(PID.TID 0000.0001)  ploadbar=  1.01088250248584E+05
 cg2d: Sum(rhs),rhsMax =  -3.59371133912058E+01  1.83699588375483E+00
(PID.TID 0000.0001)  ploadbar=  1.01089978738580E+05
 cg2d: Sum(rhs),rhsMax =  -3.60432863593419E+01  1.83146602650379E+00
(PID.TID 0000.0001)  ploadbar=  1.01089476385510E+05
 cg2d: Sum(rhs),rhsMax =  -3.61513123044871E+01  1.82590115983367E+00
(PID.TID 0000.0001)  ploadbar=  1.01088974032440E+05
 cg2d: Sum(rhs),rhsMax =  -3.62605231548965E+01  1.82033235254548E+00
(PID.TID 0000.0001)  ploadbar=  1.01088471679369E+05
 cg2d: Sum(rhs),rhsMax =  -3.63701884385940E+01  1.81479361645848E+00
(PID.TID 0000.0001)  ploadbar=  1.01087969326299E+05
 cg2d: Sum(rhs),rhsMax =  -3.64789061630937E+01  1.80935113517920E+00
(PID.TID 0000.0001)  ploadbar=  1.01087466973229E+05
 cg2d: Sum(rhs),rhsMax =  -3.65850453292195E+01  1.80407830079084E+00
(PID.TID 0000.0001)  ploadbar=  1.01086964620158E+05
 cg2d: Sum(rhs),rhsMax =  -3.66900793878166E+01  1.79883422681882E+00
(PID.TID 0000.0001)  ploadbar=  1.01087797054935E+05
 cg2d: Sum(rhs),rhsMax =  -3.67902556907123E+01  1.79380146268795E+00
(PID.TID 0000.0001)  ploadbar=  1.01088629489712E+05
 cg2d: Sum(rhs),rhsMax =  -3.68835269992127E+01  1.78907452426035E+00
(PID.TID 0000.0001)  ploadbar=  1.01089461924488E+05
 cg2d: Sum(rhs),rhsMax =  -3.69694927844854E+01  1.78466049436239E+00
(PID.TID 0000.0001)  ploadbar=  1.01090294359265E+05
 cg2d: Sum(rhs),rhsMax =  -3.70483668716655E+01  1.78053620851208E+00
(PID.TID 0000.0001)  ploadbar=  1.01091126794042E+05
 cg2d: Sum(rhs),rhsMax =  -3.71201056362804E+01  1.77669474690996E+00
(PID.TID 0000.0001)  ploadbar=  1.01091959228818E+05
 cg2d: Sum(rhs),rhsMax =  -3.71849133333994E+01  1.77331232776386E+00
(PID.TID 0000.0001)  ploadbar=  1.01091890843754E+05
 cg2d: Sum(rhs),rhsMax =  -3.72493438327840E+01  1.77006973248722E+00
(PID.TID 0000.0001)  ploadbar=  1.01091822458689E+05
 cg2d: Sum(rhs),rhsMax =  -3.73133766916122E+01  1.76696169281061E+00
(PID.TID 0000.0001)  ploadbar=  1.01091754073624E+05
 cg2d: Sum(rhs),rhsMax =  -3.73771449296220E+01  1.76397243053934E+00
(PID.TID 0000.0001)  ploadbar=  1.01091685688559E+05
 cg2d: Sum(rhs),rhsMax =  -3.74413448960533E+01  1.76106081755025E+00
(PID.TID 0000.0001)  ploadbar=  1.01091617303495E+05
 cg2d: Sum(rhs),rhsMax =  -3.75060984517792E+01  1.75821143136858E+00
(PID.TID 0000.0001)  ploadbar=  1.01091548918430E+05
 cg2d: Sum(rhs),rhsMax =  -3.75674654633033E+01  1.75553286325170E+00
(PID.TID 0000.0001)  ploadbar=  1.01091938409811E+05
 cg2d: Sum(rhs),rhsMax =  -3.76274385586915E+01  1.75292286516773E+00
(PID.TID 0000.0001)  ploadbar=  1.01092327901192E+05
 cg2d: Sum(rhs),rhsMax =  -3.76864222493309E+01  1.75035471770910E+00
(PID.TID 0000.0001)  ploadbar=  1.01092717392573E+05
 cg2d: Sum(rhs),rhsMax =  -3.77437947674394E+01  1.74785313252648E+00
(PID.TID 0000.0001)  ploadbar=  1.01093106883955E+05
 cg2d: Sum(rhs),rhsMax =  -3.77993231147903E+01  1.74542760448798E+00
(PID.TID 0000.0001)  ploadbar=  1.01093496375336E+05
 cg2d: Sum(rhs),rhsMax =  -3.78533023240542E+01  1.74306414329080E+00
(PID.TID 0000.0001)  ploadbar=  1.01093885866717E+05
 cg2d: Sum(rhs),rhsMax =  -3.79063982085138E+01  1.74078825838771E+00
(PID.TID 0000.0001)  ploadbar=  1.01094386738022E+05
 cg2d: Sum(rhs),rhsMax =  -3.79581002136079E+01  1.73861161509772E+00
(PID.TID 0000.0001)  ploadbar=  1.01094887609327E+05
 cg2d: Sum(rhs),rhsMax =  -3.80088409144450E+01  1.73650891151245E+00
(PID.TID 0000.0001)  ploadbar=  1.01095388480632E+05
 cg2d: Sum(rhs),rhsMax =  -3.80590329347495E+01  1.73445271305283E+00
(PID.TID 0000.0001)  ploadbar=  1.01095889351937E+05
 cg2d: Sum(rhs),rhsMax =  -3.81085594267402E+01  1.73244115001377E+00
(PID.TID 0000.0001)  ploadbar=  1.01096390223242E+05
 cg2d: Sum(rhs),rhsMax =  -3.81574280506393E+01  1.73046826857718E+00
(PID.TID 0000.0001)  ploadbar=  1.01096891094547E+05
 cg2d: Sum(rhs),rhsMax =  -3.82065712879919E+01  1.72844735316258E+00
(PID.TID 0000.0001)  ploadbar=  1.01097140132972E+05
 cg2d: Sum(rhs),rhsMax =  -3.82539113246245E+01  1.72646985961096E+00
(PID.TID 0000.0001)  ploadbar=  1.01097389171397E+05
 cg2d: Sum(rhs),rhsMax =  -3.83000813849815E+01  1.72450335532231E+00
(PID.TID 0000.0001)  ploadbar=  1.01097638209822E+05
 cg2d: Sum(rhs),rhsMax =  -3.83445735004787E+01  1.72256359953904E+00
(PID.TID 0000.0001)  ploadbar=  1.01097887248247E+05
 cg2d: Sum(rhs),rhsMax =  -3.83872446614380E+01  1.72064681560450E+00
(PID.TID 0000.0001)  ploadbar=  1.01098136286672E+05
 cg2d: Sum(rhs),rhsMax =  -3.84283630830969E+01  1.71873580971320E+00
(PID.TID 0000.0001)  ploadbar=  1.01098385325097E+05
 cg2d: Sum(rhs),rhsMax =  -3.84727635500087E+01  1.71681747178016E+00
(PID.TID 0000.0001)  ploadbar=  1.01098165844847E+05
 cg2d: Sum(rhs),rhsMax =  -3.85211516830674E+01  1.71485186795125E+00
(PID.TID 0000.0001)  ploadbar=  1.01097946364596E+05
 cg2d: Sum(rhs),rhsMax =  -3.85733536873406E+01  1.71283723834412E+00
(PID.TID 0000.0001)  ploadbar=  1.01097726884346E+05
 cg2d: Sum(rhs),rhsMax =  -3.86291417722567E+01  1.71077750564809E+00
(PID.TID 0000.0001)  ploadbar=  1.01097507404096E+05
 cg2d: Sum(rhs),rhsMax =  -3.86887768959907E+01  1.70865975548309E+00
(PID.TID 0000.0001)  ploadbar=  1.01097287923845E+05
 cg2d: Sum(rhs),rhsMax =  -3.87528356216522E+01  1.70645283988443E+00
(PID.TID 0000.0001)  ploadbar=  1.01097068443595E+05
 cg2d: Sum(rhs),rhsMax =  -3.88186916610961E+01  1.70416678153659E+00
(PID.TID 0000.0001)  ploadbar=  1.01096065444107E+05
 cg2d: Sum(rhs),rhsMax =  -3.88861410498548E+01  1.70180547646476E+00
(PID.TID 0000.0001)  ploadbar=  1.01095062444618E+05
 cg2d: Sum(rhs),rhsMax =  -3.89542295217698E+01  1.69940905463976E+00
(PID.TID 0000.0001)  ploadbar=  1.01094059445130E+05
 cg2d: Sum(rhs),rhsMax =  -3.90225733698030E+01  1.69698815281685E+00
(PID.TID 0000.0001)  ploadbar=  1.01093056445642E+05
 cg2d: Sum(rhs),rhsMax =  -3.90907933011680E+01  1.69455643598638E+00
(PID.TID 0000.0001)  ploadbar=  1.01092053446153E+05
 cg2d: Sum(rhs),rhsMax =  -3.91585212622597E+01  1.69212221266424E+00
(PID.TID 0000.0001)  ploadbar=  1.01091050446665E+05
 cg2d: Sum(rhs),rhsMax =  -3.92259457855678E+01  1.68971990404245E+00
(PID.TID 0000.0001)  ploadbar=  1.01088820959095E+05
 cg2d: Sum(rhs),rhsMax =  -3.92949299463683E+01  1.68726217078417E+00
(PID.TID 0000.0001)  ploadbar=  1.01086591471525E+05
 cg2d: Sum(rhs),rhsMax =  -3.93644315390014E+01  1.68478925056137E+00
(PID.TID 0000.0001)  ploadbar=  1.01084361983955E+05
 cg2d: Sum(rhs),rhsMax =  -3.94343763828680E+01  1.68230520597493E+00
(PID.TID 0000.0001)  ploadbar=  1.01082132496385E+05
 cg2d: Sum(rhs),rhsMax =  -3.95049072678321E+01  1.67980387782589E+00
(PID.TID 0000.0001)  ploadbar=  1.01079903008815E+05
 cg2d: Sum(rhs),rhsMax =  -3.95757124418181E+01  1.67729582139550E+00
(PID.TID 0000.0001)  ploadbar=  1.01077673521246E+05
 cg2d: Sum(rhs),rhsMax =  -3.96468732474872E+01  1.67468170526056E+00
(PID.TID 0000.0001)  ploadbar=  1.01077285593536E+05
 cg2d: Sum(rhs),rhsMax =  -3.97156312968815E+01  1.67207678560988E+00
(PID.TID 0000.0001)  ploadbar=  1.01076897665827E+05
 cg2d: Sum(rhs),rhsMax =  -3.97823814736643E+01  1.66945971013821E+00
(PID.TID 0000.0001)  ploadbar=  1.01076509738117E+05
 cg2d: Sum(rhs),rhsMax =  -3.98471722609359E+01  1.66682219739142E+00
(PID.TID 0000.0001)  ploadbar=  1.01076121810408E+05
 cg2d: Sum(rhs),rhsMax =  -3.99096696334686E+01  1.66417450423198E+00
(PID.TID 0000.0001)  ploadbar=  1.01075733882698E+05
 cg2d: Sum(rhs),rhsMax =  -3.99696747330629E+01  1.66152269905151E+00
(PID.TID 0000.0001)  ploadbar=  1.01075345954989E+05
 cg2d: Sum(rhs),rhsMax =  -4.00296956143226E+01  1.65898784120423E+00
(PID.TID 0000.0001)  ploadbar=  1.01076294250372E+05
 cg2d: Sum(rhs),rhsMax =  -4.00913574054521E+01  1.65649208127611E+00
(PID.TID 0000.0001)  ploadbar=  1.01077242545756E+05
 cg2d: Sum(rhs),rhsMax =  -4.01558806593704E+01  1.65398110374301E+00
(PID.TID 0000.0001)  ploadbar=  1.01078190841139E+05
 cg2d: Sum(rhs),rhsMax =  -4.02229363990596E+01  1.65146486851001E+00
(PID.TID 0000.0001)  ploadbar=  1.01079139136523E+05
 cg2d: Sum(rhs),rhsMax =  -4.02922636933635E+01  1.64895314549406E+00
(PID.TID 0000.0001)  ploadbar=  1.01080087431906E+05
 cg2d: Sum(rhs),rhsMax =  -4.03638060765166E+01  1.64644807729866E+00
(PID.TID 0000.0001)  ploadbar=  1.01081035727290E+05
 cg2d: Sum(rhs),rhsMax =  -4.04345355465482E+01  1.64401779002536E+00
(PID.TID 0000.0001)  ploadbar=  1.01082014077240E+05
 cg2d: Sum(rhs),rhsMax =  -4.05047132384456E+01  1.64164229272007E+00
(PID.TID 0000.0001)  ploadbar=  1.01082992427190E+05
 cg2d: Sum(rhs),rhsMax =  -4.05748557041683E+01  1.63929112705646E+00
(PID.TID 0000.0001)  ploadbar=  1.01083970777139E+05
 cg2d: Sum(rhs),rhsMax =  -4.06455621489355E+01  1.63692870537899E+00
(PID.TID 0000.0001)  ploadbar=  1.01084949127089E+05
 cg2d: Sum(rhs),rhsMax =  -4.07169040322804E+01  1.63454871884542E+00
(PID.TID 0000.0001)  ploadbar=  1.01085927477039E+05
 cg2d: Sum(rhs),rhsMax =  -4.07886449416586E+01  1.63215633745244E+00
(PID.TID 0000.0001)  ploadbar=  1.01086905826989E+05
 cg2d: Sum(rhs),rhsMax =  -4.08619389295020E+01  1.62972774375546E+00
(PID.TID 0000.0001)  ploadbar=  1.01086620204680E+05
 cg2d: Sum(rhs),rhsMax =  -4.09352982092712E+01  1.62731759673328E+00
(PID.TID 0000.0001)  ploadbar=  1.01086334582372E+05
 cg2d: Sum(rhs),rhsMax =  -4.10086205730562E+01  1.62492722337407E+00
(PID.TID 0000.0001)  ploadbar=  1.01086048960063E+05
 cg2d: Sum(rhs),rhsMax =  -4.10821902549803E+01  1.62254063977941E+00
(PID.TID 0000.0001)  ploadbar=  1.01085763337754E+05
 cg2d: Sum(rhs),rhsMax =  -4.11564950636077E+01  1.62013726664701E+00
(PID.TID 0000.0001)  ploadbar=  1.01085477715446E+05
 cg2d: Sum(rhs),rhsMax =  -4.12314959539981E+01  1.61771080238620E+00
(PID.TID 0000.0001)  ploadbar=  1.01085192093137E+05
 cg2d: Sum(rhs),rhsMax =  -4.13086308100672E+01  1.61520621794804E+00
(PID.TID 0000.0001)  ploadbar=  1.01086126575123E+05
 cg2d: Sum(rhs),rhsMax =  -4.13874286086496E+01  1.61263700106362E+00
(PID.TID 0000.0001)  ploadbar=  1.01087061057110E+05
 cg2d: Sum(rhs),rhsMax =  -4.14661120670054E+01  1.61006745599678E+00
(PID.TID 0000.0001)  ploadbar=  1.01087995539096E+05
 cg2d: Sum(rhs),rhsMax =  -4.15433578603002E+01  1.60754058228727E+00
(PID.TID 0000.0001)  ploadbar=  1.01088930021082E+05
 cg2d: Sum(rhs),rhsMax =  -4.16191005033241E+01  1.60505330831142E+00
(PID.TID 0000.0001)  ploadbar=  1.01089864503069E+05
 cg2d: Sum(rhs),rhsMax =  -4.16933785777994E+01  1.60260054442275E+00
(PID.TID 0000.0001)  ploadbar=  1.01090798985055E+05
 cg2d: Sum(rhs),rhsMax =  -4.17714839668280E+01  1.60012602816679E+00
(PID.TID 0000.0001)  ploadbar=  1.01091077247148E+05
 cg2d: Sum(rhs),rhsMax =  -4.18532235637434E+01  1.59762919959174E+00
(PID.TID 0000.0001)  ploadbar=  1.01091355509240E+05
 cg2d: Sum(rhs),rhsMax =  -4.19377089216084E+01  1.59514344345742E+00
(PID.TID 0000.0001)  ploadbar=  1.01091633771333E+05
 cg2d: Sum(rhs),rhsMax =  -4.20242546036376E+01  1.59269388774952E+00
(PID.TID 0000.0001)  ploadbar=  1.01091912033426E+05
 cg2d: Sum(rhs),rhsMax =  -4.21125891100660E+01  1.59028776418274E+00
(PID.TID 0000.0001)  ploadbar=  1.01092190295518E+05
 cg2d: Sum(rhs),rhsMax =  -4.22028334269539E+01  1.58791709001123E+00
(PID.TID 0000.0001)  ploadbar=  1.01092468557611E+05
 cg2d: Sum(rhs),rhsMax =  -4.22908066371918E+01  1.58561595542924E+00
(PID.TID 0000.0001)  ploadbar=  1.01092830157831E+05
 cg2d: Sum(rhs),rhsMax =  -4.23775340449415E+01  1.58333737571992E+00
(PID.TID 0000.0001)  ploadbar=  1.01093191758051E+05
 cg2d: Sum(rhs),rhsMax =  -4.24626886152222E+01  1.58108665124392E+00
(PID.TID 0000.0001)  ploadbar=  1.01093553358271E+05
 cg2d: Sum(rhs),rhsMax =  -4.25460785749229E+01  1.57886780680238E+00
(PID.TID 0000.0001)  ploadbar=  1.01093914958491E+05
 cg2d: Sum(rhs),rhsMax =  -4.26276699316264E+01  1.57668251811092E+00
(PID.TID 0000.0001)  ploadbar=  1.01094276558711E+05
 cg2d: Sum(rhs),rhsMax =  -4.27071577548750E+01  1.57453958260871E+00
(PID.TID 0000.0001)  ploadbar=  1.01094638158931E+05
 cg2d: Sum(rhs),rhsMax =  -4.27876333846551E+01  1.57237669953047E+00
(PID.TID 0000.0001)  ploadbar=  1.01094290436834E+05
 cg2d: Sum(rhs),rhsMax =  -4.28672446511208E+01  1.57025710072354E+00
(PID.TID 0000.0001)  ploadbar=  1.01093942714737E+05
 cg2d: Sum(rhs),rhsMax =  -4.29455501511890E+01  1.56819775339221E+00
(PID.TID 0000.0001)  ploadbar=  1.01093594992640E+05
 cg2d: Sum(rhs),rhsMax =  -4.30238926235069E+01  1.56614765819246E+00
(PID.TID 0000.0001)  ploadbar=  1.01093247270543E+05
 cg2d: Sum(rhs),rhsMax =  -4.31026158198160E+01  1.56409584826889E+00
(PID.TID 0000.0001)  ploadbar=  1.01092899548446E+05
 cg2d: Sum(rhs),rhsMax =  -4.31816545561641E+01  1.56204486911135E+00
(PID.TID 0000.0001)  ploadbar=  1.01092551826349E+05
 cg2d: Sum(rhs),rhsMax =  -4.32602622119826E+01  1.55992856701974E+00
(PID.TID 0000.0001)  ploadbar=  1.01092167809785E+05
 cg2d: Sum(rhs),rhsMax =  -4.33388158087181E+01  1.55772699039547E+00
(PID.TID 0000.0001)  ploadbar=  1.01091783793220E+05
 cg2d: Sum(rhs),rhsMax =  -4.34146114940924E+01  1.55553361852256E+00
(PID.TID 0000.0001)  ploadbar=  1.01091399776655E+05
 cg2d: Sum(rhs),rhsMax =  -4.34858473913390E+01  1.55340903514262E+00
(PID.TID 0000.0001)  ploadbar=  1.01091015760090E+05
 cg2d: Sum(rhs),rhsMax =  -4.35512549902412E+01  1.55139360036413E+00
(PID.TID 0000.0001)  ploadbar=  1.01090631743525E+05
 cg2d: Sum(rhs),rhsMax =  -4.36105302095045E+01  1.54949756532877E+00
(PID.TID 0000.0001)  ploadbar=  1.01090247726960E+05
 cg2d: Sum(rhs),rhsMax =  -4.36701313646321E+01  1.54772968833997E+00
(PID.TID 0000.0001)  ploadbar=  1.01087484875857E+05
 cg2d: Sum(rhs),rhsMax =  -4.37328323152504E+01  1.54598395153223E+00
(PID.TID 0000.0001)  ploadbar=  1.01084722024753E+05
 cg2d: Sum(rhs),rhsMax =  -4.37965635266794E+01  1.54433388674197E+00
(PID.TID 0000.0001)  ploadbar=  1.01081959173650E+05
 cg2d: Sum(rhs),rhsMax =  -4.38615039376187E+01  1.54277416176019E+00
(PID.TID 0000.0001)  ploadbar=  1.01079196322546E+05
 cg2d: Sum(rhs),rhsMax =  -4.39283338417829E+01  1.54128218018842E+00
(PID.TID 0000.0001)  ploadbar=  1.01076433471442E+05
 cg2d: Sum(rhs),rhsMax =  -4.39965379121694E+01  1.53987181046229E+00
(PID.TID 0000.0001)  ploadbar=  1.01073670620339E+05
 cg2d: Sum(rhs),rhsMax =  -4.40499317846009E+01  1.53896262486910E+00
(PID.TID 0000.0001)  ploadbar=  1.01072372548199E+05
 cg2d: Sum(rhs),rhsMax =  -4.40975335501306E+01  1.53823209439178E+00
(PID.TID 0000.0001)  ploadbar=  1.01071074476059E+05
 cg2d: Sum(rhs),rhsMax =  -4.41361919680526E+01  1.53778883373169E+00
(PID.TID 0000.0001)  ploadbar=  1.01069776403919E+05
 cg2d: Sum(rhs),rhsMax =  -4.41630279974193E+01  1.53773048031477E+00
(PID.TID 0000.0001)  ploadbar=  1.01068478331779E+05
 cg2d: Sum(rhs),rhsMax =  -4.41787817063422E+01  1.53803078097934E+00
(PID.TID 0000.0001)  ploadbar=  1.01067180259639E+05
 cg2d: Sum(rhs),rhsMax =  -4.41860647793704E+01  1.53860024371273E+00
(PID.TID 0000.0001)  ploadbar=  1.01065882187499E+05
 cg2d: Sum(rhs),rhsMax =  -4.41804064673691E+01  1.53963390786444E+00
(PID.TID 0000.0001)  ploadbar=  1.01064831839690E+05
 cg2d: Sum(rhs),rhsMax =  -4.41715904542783E+01  1.54078726508790E+00
(PID.TID 0000.0001)  ploadbar=  1.01063781491880E+05
 cg2d: Sum(rhs),rhsMax =  -4.41690148167712E+01  1.54173586066553E+00
(PID.TID 0000.0001)  ploadbar=  1.01062731144071E+05
 cg2d: Sum(rhs),rhsMax =  -4.41814470984086E+01  1.54218087465486E+00
(PID.TID 0000.0001)  ploadbar=  1.01061680796262E+05
 cg2d: Sum(rhs),rhsMax =  -4.42145257168416E+01  1.54192725824013E+00
(PID.TID 0000.0001)  ploadbar=  1.01060630448452E+05
 cg2d: Sum(rhs),rhsMax =  -4.42654053943051E+01  1.54108461479374E+00
(PID.TID 0000.0001)  ploadbar=  1.01059580100643E+05
 cg2d: Sum(rhs),rhsMax =  -4.43119575669229E+01  1.54032617087766E+00
(PID.TID 0000.0001)  ploadbar=  1.01058288647696E+05
 cg2d: Sum(rhs),rhsMax =  -4.43423813354264E+01  1.54005794174423E+00
(PID.TID 0000.0001)  ploadbar=  1.01056997194750E+05
 cg2d: Sum(rhs),rhsMax =  -4.43605691035428E+01  1.54014341470305E+00
(PID.TID 0000.0001)  ploadbar=  1.01055705741803E+05
 cg2d: Sum(rhs),rhsMax =  -4.43676266828557E+01  1.54054005310211E+00
(PID.TID 0000.0001)  ploadbar=  1.01054414288856E+05
 cg2d: Sum(rhs),rhsMax =  -4.43671082625099E+01  1.54112384477346E+00
(PID.TID 0000.0001)  ploadbar=  1.01053122835910E+05
 cg2d: Sum(rhs),rhsMax =  -4.43629653682042E+01  1.54175889352017E+00
(PID.TID 0000.0001)  ploadbar=  1.01051831382963E+05
 cg2d: Sum(rhs),rhsMax =  -4.43535742464532E+01  1.54259743649047E+00
(PID.TID 0000.0001)  ploadbar=  1.01050410014458E+05
 cg2d: Sum(rhs),rhsMax =  -4.43352570568435E+01  1.54376802663588E+00
(PID.TID 0000.0001)  ploadbar=  1.01048988645952E+05
 cg2d: Sum(rhs),rhsMax =  -4.43252275965697E+01  1.54467305160242E+00
(PID.TID 0000.0001)  ploadbar=  1.01047567277446E+05
 cg2d: Sum(rhs),rhsMax =  -4.42997707649386E+01  1.54614219976029E+00
(PID.TID 0000.0001)  ploadbar=  1.01046145908941E+05
 cg2d: Sum(rhs),rhsMax =  -4.42576091712781E+01  1.54822642933736E+00
(PID.TID 0000.0001)  ploadbar=  1.01044724540435E+05
 cg2d: Sum(rhs),rhsMax =  -4.42047728558333E+01  1.55071427759933E+00
(PID.TID 0000.0001)  ploadbar=  1.01043303171930E+05
 cg2d: Sum(rhs),rhsMax =  -4.41593249575010E+01  1.55291218615244E+00
(PID.TID 0000.0001)  ploadbar=  1.01042169733065E+05
 cg2d: Sum(rhs),rhsMax =  -4.41055524452513E+01  1.55536710783699E+00
(PID.TID 0000.0001)  ploadbar=  1.01041036294200E+05
 cg2d: Sum(rhs),rhsMax =  -4.40469441572215E+01  1.55795587559817E+00
(PID.TID 0000.0001)  ploadbar=  1.01039902855335E+05
 cg2d: Sum(rhs),rhsMax =  -4.39868022675800E+01  1.56056050175443E+00
(PID.TID 0000.0001)  ploadbar=  1.01038769416470E+05
 cg2d: Sum(rhs),rhsMax =  -4.39248845847052E+01  1.56319522373648E+00
(PID.TID 0000.0001)  ploadbar=  1.01037635977605E+05
 cg2d: Sum(rhs),rhsMax =  -4.38615402241768E+01  1.56584655023507E+00
(PID.TID 0000.0001)  ploadbar=  1.01036502538740E+05
 cg2d: Sum(rhs),rhsMax =  -4.38074225896988E+01  1.56824516188745E+00
(PID.TID 0000.0001)  ploadbar=  1.01035921159873E+05
 cg2d: Sum(rhs),rhsMax =  -4.37608472176063E+01  1.57044901047980E+00
(PID.TID 0000.0001)  ploadbar=  1.01035339781006E+05
 cg2d: Sum(rhs),rhsMax =  -4.37215292911915E+01  1.57247031148138E+00
(PID.TID 0000.0001)  ploadbar=  1.01034758402139E+05
 cg2d: Sum(rhs),rhsMax =  -4.36904344109885E+01  1.57427721763902E+00
(PID.TID 0000.0001)  ploadbar=  1.01034177023272E+05
 cg2d: Sum(rhs),rhsMax =  -4.36683947350296E+01  1.57583896345744E+00
(PID.TID 0000.0001)  ploadbar=  1.01033595644405E+05
 cg2d: Sum(rhs),rhsMax =  -4.36561538691247E+01  1.57713129305783E+00
(PID.TID 0000.0001)  ploadbar=  1.01033014265538E+05
 cg2d: Sum(rhs),rhsMax =  -4.36603121913044E+01  1.57782207740766E+00
(PID.TID 0000.0001)  ploadbar=  1.01032437648681E+05
 cg2d: Sum(rhs),rhsMax =  -4.36768312698415E+01  1.57805420051707E+00
(PID.TID 0000.0001)  ploadbar=  1.01031861031825E+05
 cg2d: Sum(rhs),rhsMax =  -4.37018483177426E+01  1.57796551007287E+00
(PID.TID 0000.0001)  ploadbar=  1.01031284414968E+05
 cg2d: Sum(rhs),rhsMax =  -4.37353077724807E+01  1.57755477122684E+00
(PID.TID 0000.0001)  ploadbar=  1.01030707798112E+05
 cg2d: Sum(rhs),rhsMax =  -4.37752049747399E+01  1.57688960407186E+00
(PID.TID 0000.0001)  ploadbar=  1.01030131181255E+05
 cg2d: Sum(rhs),rhsMax =  -4.38216843182443E+01  1.57596706102365E+00
(PID.TID 0000.0001)  ploadbar=  1.01029554564399E+05
 cg2d: Sum(rhs),rhsMax =  -4.38725912914643E+01  1.57493331721412E+00
(PID.TID 0000.0001)  ploadbar=  1.01029717728708E+05
 cg2d: Sum(rhs),rhsMax =  -4.39330442166606E+01  1.57360325633582E+00
(PID.TID 0000.0001)  ploadbar=  1.01029880893018E+05
 cg2d: Sum(rhs),rhsMax =  -4.39969348979714E+01  1.57219743186181E+00
(PID.TID 0000.0001)  ploadbar=  1.01030044057328E+05
 cg2d: Sum(rhs),rhsMax =  -4.40637619737550E+01  1.57073911246706E+00
(PID.TID 0000.0001)  ploadbar=  1.01030207221638E+05
 cg2d: Sum(rhs),rhsMax =  -4.41341894988524E+01  1.56920662724836E+00
(PID.TID 0000.0001)  ploadbar=  1.01030370385948E+05
 cg2d: Sum(rhs),rhsMax =  -4.42082190145455E+01  1.56759685547028E+00
(PID.TID 0000.0001)  ploadbar=  1.01030533550258E+05
 cg2d: Sum(rhs),rhsMax =  -4.42761957539918E+01  1.56614063279778E+00
(PID.TID 0000.0001)  ploadbar=  1.01029995454329E+05
 cg2d: Sum(rhs),rhsMax =  -4.43463530469400E+01  1.56453476217930E+00
(PID.TID 0000.0001)  ploadbar=  1.01029457358401E+05
 cg2d: Sum(rhs),rhsMax =  -4.44174482906698E+01  1.56281844352230E+00
(PID.TID 0000.0001)  ploadbar=  1.01028919262472E+05
 cg2d: Sum(rhs),rhsMax =  -4.44888156119906E+01  1.56101611151456E+00
(PID.TID 0000.0001)  ploadbar=  1.01028381166544E+05
 cg2d: Sum(rhs),rhsMax =  -4.45603986536872E+01  1.55913247723076E+00
(PID.TID 0000.0001)  ploadbar=  1.01027843070615E+05
 cg2d: Sum(rhs),rhsMax =  -4.46311620293709E+01  1.55720606653519E+00
(PID.TID 0000.0001)  ploadbar=  1.01027304974687E+05
 cg2d: Sum(rhs),rhsMax =  -4.46990269148769E+01  1.55539006343324E+00
(PID.TID 0000.0001)  ploadbar=  1.01025997723040E+05
 cg2d: Sum(rhs),rhsMax =  -4.47669439536616E+01  1.55357989377831E+00
(PID.TID 0000.0001)  ploadbar=  1.01024690471393E+05
 cg2d: Sum(rhs),rhsMax =  -4.48367913328636E+01  1.55171253640610E+00
(PID.TID 0000.0001)  ploadbar=  1.01023383219745E+05
 cg2d: Sum(rhs),rhsMax =  -4.49082155614211E+01  1.54980091101334E+00
(PID.TID 0000.0001)  ploadbar=  1.01022075968098E+05
 cg2d: Sum(rhs),rhsMax =  -4.49810596635793E+01  1.54785210395914E+00
(PID.TID 0000.0001)  ploadbar=  1.01020768716451E+05
 cg2d: Sum(rhs),rhsMax =  -4.50555609276438E+01  1.54586211108082E+00
(PID.TID 0000.0001)  ploadbar=  1.01019461464804E+05
 cg2d: Sum(rhs),rhsMax =  -4.51253710220931E+01  1.54394808120013E+00
(PID.TID 0000.0001)  ploadbar=  1.01019433592891E+05
 cg2d: Sum(rhs),rhsMax =  -4.51925343893194E+01  1.54203478489328E+00
(PID.TID 0000.0001)  ploadbar=  1.01019405720978E+05
 cg2d: Sum(rhs),rhsMax =  -4.52591029102442E+01  1.54004812119737E+00
(PID.TID 0000.0001)  ploadbar=  1.01019377849066E+05
 cg2d: Sum(rhs),rhsMax =  -4.53251469971641E+01  1.53798091620825E+00
(PID.TID 0000.0001)  ploadbar=  1.01019349977153E+05
 cg2d: Sum(rhs),rhsMax =  -4.53904707310935E+01  1.53583707094782E+00
(PID.TID 0000.0001)  ploadbar=  1.01019322105240E+05
 cg2d: Sum(rhs),rhsMax =  -4.54554245714916E+01  1.53360157079554E+00
(PID.TID 0000.0001)  ploadbar=  1.01019294233328E+05
 cg2d: Sum(rhs),rhsMax =  -4.55294209640650E+01  1.53116712664583E+00
(PID.TID 0000.0001)  ploadbar=  1.01020232934041E+05
 cg2d: Sum(rhs),rhsMax =  -4.56098589029871E+01  1.52861916922581E+00
(PID.TID 0000.0001)  ploadbar=  1.01021171634755E+05
 cg2d: Sum(rhs),rhsMax =  -4.57023789190085E+01  1.52577271120842E+00
(PID.TID 0000.0001)  ploadbar=  1.01022110335469E+05
 cg2d: Sum(rhs),rhsMax =  -4.58076640497092E+01  1.52260897828969E+00
(PID.TID 0000.0001)  ploadbar=  1.01023049036182E+05
 cg2d: Sum(rhs),rhsMax =  -4.59256029856530E+01  1.51913628379415E+00
(PID.TID 0000.0001)  ploadbar=  1.01023987736896E+05
 cg2d: Sum(rhs),rhsMax =  -4.60565558874035E+01  1.51534432867765E+00
(PID.TID 0000.0001)  ploadbar=  1.01024926437610E+05
 cg2d: Sum(rhs),rhsMax =  -4.61985779062117E+01  1.51121513508822E+00
(PID.TID 0000.0001)  ploadbar=  1.01026031060063E+05
 cg2d: Sum(rhs),rhsMax =  -4.63473751033748E+01  1.50688376645656E+00
(PID.TID 0000.0001)  ploadbar=  1.01027135682516E+05
 cg2d: Sum(rhs),rhsMax =  -4.65047393316839E+01  1.50229438334128E+00
(PID.TID 0000.0001)  ploadbar=  1.01028240304969E+05
 cg2d: Sum(rhs),rhsMax =  -4.66700734084289E+01  1.49746888540680E+00
(PID.TID 0000.0001)  ploadbar=  1.01029344927421E+05
 cg2d: Sum(rhs),rhsMax =  -4.68429436194630E+01  1.49242494438727E+00
(PID.TID 0000.0001)  ploadbar=  1.01030449549874E+05
 cg2d: Sum(rhs),rhsMax =  -4.70245844498865E+01  1.48713163022314E+00
(PID.TID 0000.0001)  ploadbar=  1.01031554172327E+05
 cg2d: Sum(rhs),rhsMax =  -4.72259248445002E+01  1.48126494627453E+00
(PID.TID 0000.0001)  ploadbar=  1.01033153068061E+05
 cg2d: Sum(rhs),rhsMax =  -4.74393934488579E+01  1.47506751828294E+00
(PID.TID 0000.0001)  ploadbar=  1.01034751963794E+05
 cg2d: Sum(rhs),rhsMax =  -4.76560638745026E+01  1.46881963374841E+00
(PID.TID 0000.0001)  ploadbar=  1.01036350859527E+05
 cg2d: Sum(rhs),rhsMax =  -4.78746305709837E+01  1.46256029836135E+00
(PID.TID 0000.0001)  ploadbar=  1.01037949755261E+05
 cg2d: Sum(rhs),rhsMax =  -4.80930948968606E+01  1.45635072909769E+00
(PID.TID 0000.0001)  ploadbar=  1.01039548650994E+05
 cg2d: Sum(rhs),rhsMax =  -4.83090776138223E+01  1.45025782485798E+00
(PID.TID 0000.0001)  ploadbar=  1.01041147546728E+05
 cg2d: Sum(rhs),rhsMax =  -4.85006993258182E+01  1.44488615429462E+00
(PID.TID 0000.0001)  ploadbar=  1.01042675117581E+05
 cg2d: Sum(rhs),rhsMax =  -4.86800698496107E+01  1.43985201117760E+00
(PID.TID 0000.0001)  ploadbar=  1.01044202688434E+05
 cg2d: Sum(rhs),rhsMax =  -4.88413217225864E+01  1.43531859282294E+00
(PID.TID 0000.0001)  ploadbar=  1.01045730259287E+05
 cg2d: Sum(rhs),rhsMax =  -4.89836502860551E+01  1.43129095384240E+00
(PID.TID 0000.0001)  ploadbar=  1.01047257830141E+05
 cg2d: Sum(rhs),rhsMax =  -4.91115225617313E+01  1.42762234968868E+00
(PID.TID 0000.0001)  ploadbar=  1.01048785400994E+05
 cg2d: Sum(rhs),rhsMax =  -4.92275772715070E+01  1.42422300627091E+00
(PID.TID 0000.0001)  ploadbar=  1.01050312971847E+05
 cg2d: Sum(rhs),rhsMax =  -4.93530555403861E+01  1.42061472213603E+00
(PID.TID 0000.0001)  ploadbar=  1.01052441550712E+05
 cg2d: Sum(rhs),rhsMax =  -4.94871579508524E+01  1.41681698471619E+00
(PID.TID 0000.0001)  ploadbar=  1.01054570129577E+05
 cg2d: Sum(rhs),rhsMax =  -4.96305918574700E+01  1.41280707912793E+00
(PID.TID 0000.0001)  ploadbar=  1.01056698708442E+05
 cg2d: Sum(rhs),rhsMax =  -4.97808252129561E+01  1.40865325534524E+00
(PID.TID 0000.0001)  ploadbar=  1.01058827287307E+05
 cg2d: Sum(rhs),rhsMax =  -4.99370471997166E+01  1.40437394291009E+00
(PID.TID 0000.0001)  ploadbar=  1.01060955866172E+05
 cg2d: Sum(rhs),rhsMax =  -5.00979855345295E+01  1.40000201815171E+00
(PID.TID 0000.0001)  ploadbar=  1.01063084445038E+05
 cg2d: Sum(rhs),rhsMax =  -5.02520699744089E+01  1.39588194281414E+00
(PID.TID 0000.0001)  ploadbar=  1.01064346764520E+05
 cg2d: Sum(rhs),rhsMax =  -5.04031416883127E+01  1.39189795982564E+00
(PID.TID 0000.0001)  ploadbar=  1.01065609084003E+05
 cg2d: Sum(rhs),rhsMax =  -5.05540696945365E+01  1.38796248942781E+00
(PID.TID 0000.0001)  ploadbar=  1.01066871403486E+05
 cg2d: Sum(rhs),rhsMax =  -5.07053125822797E+01  1.38405705131014E+00
(PID.TID 0000.0001)  ploadbar=  1.01068133722968E+05
 cg2d: Sum(rhs),rhsMax =  -5.08563308568726E+01  1.38019343039181E+00
(PID.TID 0000.0001)  ploadbar=  1.01069396042451E+05
 cg2d: Sum(rhs),rhsMax =  -5.10060213750925E+01  1.37639682690677E+00
(PID.TID 0000.0001)  ploadbar=  1.01070658361934E+05
 cg2d: Sum(rhs),rhsMax =  -5.11736458542776E+01  1.37216150647649E+00
(PID.TID 0000.0001)  ploadbar=  1.01071753268818E+05
 cg2d: Sum(rhs),rhsMax =  -5.13453798151831E+01  1.36785612472033E+00
(PID.TID 0000.0001)  ploadbar=  1.01072848175702E+05
 cg2d: Sum(rhs),rhsMax =  -5.15225436090724E+01  1.36344211501128E+00
(PID.TID 0000.0001)  ploadbar=  1.01073943082586E+05
 cg2d: Sum(rhs),rhsMax =  -5.17030059754519E+01  1.35897313733171E+00
(PID.TID 0000.0001)  ploadbar=  1.01075037989469E+05
 cg2d: Sum(rhs),rhsMax =  -5.18826627526240E+01  1.35455248929420E+00
(PID.TID 0000.0001)  ploadbar=  1.01076132896353E+05
 cg2d: Sum(rhs),rhsMax =  -5.20602553091413E+01  1.35020903916354E+00
(PID.TID 0000.0001)  ploadbar=  1.01077227803237E+05
 cg2d: Sum(rhs),rhsMax =  -5.22380021761910E+01  1.34587002580084E+00
(PID.TID 0000.0001)  ploadbar=  1.01077961329229E+05
 cg2d: Sum(rhs),rhsMax =  -5.24068221267467E+01  1.34176545675416E+00
(PID.TID 0000.0001)  ploadbar=  1.01078694855220E+05
 cg2d: Sum(rhs),rhsMax =  -5.25628627684191E+01  1.33798389208478E+00
(PID.TID 0000.0001)  ploadbar=  1.01079428381211E+05
 cg2d: Sum(rhs),rhsMax =  -5.27024640412710E+01  1.33460576308990E+00
(PID.TID 0000.0001)  ploadbar=  1.01080161907202E+05
 cg2d: Sum(rhs),rhsMax =  -5.28186791915159E+01  1.33179310842781E+00
(PID.TID 0000.0001)  ploadbar=  1.01080895433193E+05
 cg2d: Sum(rhs),rhsMax =  -5.29072812164548E+01  1.32964126997196E+00
(PID.TID 0000.0001)  ploadbar=  1.01081628959184E+05
 cg2d: Sum(rhs),rhsMax =  -5.29787909466987E+01  1.32802350915456E+00
(PID.TID 0000.0001)  ploadbar=  1.01082478472604E+05
 cg2d: Sum(rhs),rhsMax =  -5.30553734142926E+01  1.32637742373914E+00
(PID.TID 0000.0001)  ploadbar=  1.01083327986023E+05
 cg2d: Sum(rhs),rhsMax =  -5.31342865123912E+01  1.32476764858217E+00
(PID.TID 0000.0001)  ploadbar=  1.01084177499442E+05
 cg2d: Sum(rhs),rhsMax =  -5.32168530836697E+01  1.32315790486199E+00
(PID.TID 0000.0001)  ploadbar=  1.01085027012862E+05
 cg2d: Sum(rhs),rhsMax =  -5.33089341449936E+01  1.32139957268137E+00
(PID.TID 0000.0001)  ploadbar=  1.01085876526281E+05
 cg2d: Sum(rhs),rhsMax =  -5.34145654425453E+01  1.31938873474969E+00
(PID.TID 0000.0001)  ploadbar=  1.01086726039700E+05
 cg2d: Sum(rhs),rhsMax =  -5.35270142055208E+01  1.31722565312853E+00
(PID.TID 0000.0001)  ploadbar=  1.01087502067398E+05
 cg2d: Sum(rhs),rhsMax =  -5.36736267528080E+01  1.31423214441551E+00
(PID.TID 0000.0001)      cg2d_init_res =   2.58699131106915E-01
(PID.TID 0000.0001)      cg2d_iters(min,last) =      -1     142
(PID.TID 0000.0001)      cg2d_last_res =   9.76392198361296E-08
(PID.TID 0000.0001) // =======================================================
(PID.TID 0000.0001) // Begin MONITOR dynamic field statistics
(PID.TID 0000.0001) // =======================================================
(PID.TID 0000.0001) %MON time_tsnumber                =                  3504
(PID.TID 0000.0001) %MON time_secondsf                =   1.2614400000000E+07
(PID.TID 0000.0001) %MON dynstat_eta_max              =   1.1087829681683E+00
(PID.TID 0000.0001) %MON dynstat_eta_min              =  -5.5388289439558E+00
(PID.TID 0000.0001) %MON dynstat_eta_mean             =   3.5702288211746E-02
(PID.TID 0000.0001) %MON dynstat_eta_sd               =   7.6155651600754E-01
(PID.TID 0000.0001) %MON dynstat_eta_del2             =   2.0454282573015E-04
(PID.TID 0000.0001) %MON dynstat_uvel_max             =   1.2342719126099E+00
(PID.TID 0000.0001) %MON dynstat_uvel_min             =  -8.9289079143039E-01
(PID.TID 0000.0001) %MON dynstat_uvel_mean            =   1.4082136753620E-03
(PID.TID 0000.0001) %MON dynstat_uvel_sd              =   2.1136738751186E-02
(PID.TID 0000.0001) %MON dynstat_uvel_del2            =   8.2041650178319E-06
(PID.TID 0000.0001) %MON dynstat_vvel_max             =   7.8299525700693E-01
(PID.TID 0000.0001) %MON dynstat_vvel_min             =  -9.8603142453336E-01
(PID.TID 0000.0001) %MON dynstat_vvel_mean            =   8.4713736174768E-04
(PID.TID 0000.0001) %MON dynstat_vvel_sd              =   2.1138364924957E-02
(PID.TID 0000.0001) %MON dynstat_vvel_del2            =   8.4249779388627E-06
(PID.TID 0000.0001) %MON dynstat_wvel_max             =   5.8519488430634E-04
(PID.TID 0000.0001) %MON dynstat_wvel_min             =  -8.3612273488821E-04
(PID.TID 0000.0001) %MON dynstat_wvel_mean            =  -8.4453201214327E-09
(PID.TID 0000.0001) %MON dynstat_wvel_sd              =   2.2191094600293E-05
(PID.TID 0000.0001) %MON dynstat_wvel_del2            =   1.6453637067914E-08
(PID.TID 0000.0001) %MON dynstat_theta_max            =   3.2118782465051E+01
(PID.TID 0000.0001) %MON dynstat_theta_min            =  -2.1143761658047E+00
(PID.TID 0000.0001) %MON dynstat_theta_mean           =   3.5857029722495E+00
(PID.TID 0000.0001) %MON dynstat_theta_sd             =   4.4435511376309E+00
(PID.TID 0000.0001) %MON dynstat_theta_del2           =   8.4036790566708E-05
(PID.TID 0000.0001) %MON dynstat_salt_max             =   4.0641907180743E+01
(PID.TID 0000.0001) %MON dynstat_salt_min             =   2.3214967811577E+01
(PID.TID 0000.0001) %MON dynstat_salt_mean            =   3.4727297843719E+01
(PID.TID 0000.0001) %MON dynstat_salt_sd              =   3.7704582209869E-01
(PID.TID 0000.0001) %MON dynstat_salt_del2            =   1.8726168946396E-05
(PID.TID 0000.0001) %MON dynstat_sst_max              =   3.2100100400073E+01
(PID.TID 0000.0001) %MON dynstat_sst_min              =  -1.9608767412580E+00
(PID.TID 0000.0001) %MON dynstat_sst_mean             =   1.8223433655044E+01
(PID.TID 0000.0001) %MON dynstat_sst_sd               =   1.0421513275438E+01
(PID.TID 0000.0001) %MON dynstat_sst_del2             =   6.4514187071991E-04
(PID.TID 0000.0001) %MON dynstat_sss_max              =   3.9994135496980E+01
(PID.TID 0000.0001) %MON dynstat_sss_min              =   2.3214967811577E+01
(PID.TID 0000.0001) %MON dynstat_sss_mean             =   3.4745987417319E+01
(PID.TID 0000.0001) %MON dynstat_sss_sd               =   1.1732545463423E+00
(PID.TID 0000.0001) %MON dynstat_sss_del2             =   3.0601358364485E-04
(PID.TID 0000.0001) %MON forcing_qnet_max             =   7.2743301638815E+02
(PID.TID 0000.0001) %MON forcing_qnet_min             =  -5.7879601058668E+02
(PID.TID 0000.0001) %MON forcing_qnet_mean            =   3.6388050408875E+01
(PID.TID 0000.0001) %MON forcing_qnet_sd              =   1.6223758126044E+02
(PID.TID 0000.0001) %MON forcing_qnet_del2            =   9.3865409559056E-02
(PID.TID 0000.0001) %MON forcing_qsw_max              =   4.1153482476635E+01
(PID.TID 0000.0001) %MON forcing_qsw_min              =  -7.0969266628829E+02
(PID.TID 0000.0001) %MON forcing_qsw_mean             =  -1.1735182988841E+02
(PID.TID 0000.0001) %MON forcing_qsw_sd               =   1.4746686766095E+02
(PID.TID 0000.0001) %MON forcing_qsw_del2             =   5.5389062126119E-02
(PID.TID 0000.0001) %MON forcing_empmr_max            =   1.8849809068165E-03
(PID.TID 0000.0001) %MON forcing_empmr_min            =  -3.2062395605163E-03
(PID.TID 0000.0001) %MON forcing_empmr_mean           =  -4.6944179553669E-06
(PID.TID 0000.0001) %MON forcing_empmr_sd             =   9.4324876138423E-05
(PID.TID 0000.0001) %MON forcing_empmr_del2           =   2.7184391756444E-07
(PID.TID 0000.0001) %MON forcing_fu_max               =   1.0205816626549E+00
(PID.TID 0000.0001) %MON forcing_fu_min               =  -8.4115873917184E-01
(PID.TID 0000.0001) %MON forcing_fu_mean              =   1.4135167290012E-02
(PID.TID 0000.0001) %MON forcing_fu_sd                =   1.3792706839077E-01
(PID.TID 0000.0001) %MON forcing_fu_del2              =   7.4023576199315E-05
(PID.TID 0000.0001) %MON forcing_fv_max               =   7.0983178126227E-01
(PID.TID 0000.0001) %MON forcing_fv_min               =  -8.9562448284205E-01
(PID.TID 0000.0001) %MON forcing_fv_mean              =   5.5756169265744E-04
(PID.TID 0000.0001) %MON forcing_fv_sd                =   1.0077837278073E-01
(PID.TID 0000.0001) %MON forcing_fv_del2              =   6.2508505860460E-05
(PID.TID 0000.0001) %MON trAdv_CFL_u_max              =   5.3662287076032E-02
(PID.TID 0000.0001) %MON trAdv_CFL_v_max              =   5.8538707330741E-02
(PID.TID 0000.0001) %MON trAdv_CFL_w_max              =   1.2442529476736E-01
(PID.TID 0000.0001) %MON advcfl_uvel_max              =   4.6822986970591E-02
(PID.TID 0000.0001) %MON advcfl_vvel_max              =   6.1740342002066E-02
(PID.TID 0000.0001) %MON advcfl_wvel_max              =   1.2795497150818E-01
(PID.TID 0000.0001) %MON advcfl_W_hf_max              =   1.2903333066260E-01
(PID.TID 0000.0001) %MON pe_b_mean                    =   1.2900355358613E-03
(PID.TID 0000.0001) %MON ke_max                       =   8.0889185351938E-01
(PID.TID 0000.0001) %MON ke_mean                      =   4.3218426988237E-04
(PID.TID 0000.0001) %MON ke_vol                       =   1.3350106529735E+18
(PID.TID 0000.0001) %MON vort_r_min                   =  -1.1407900294686E-05
(PID.TID 0000.0001) %MON vort_r_max                   =   2.2508456612049E-05
(PID.TID 0000.0001) %MON vort_a_mean                  =  -1.9727725442933E-05
(PID.TID 0000.0001) %MON vort_a_sd                    =   7.4542893501955E-05
(PID.TID 0000.0001) %MON vort_p_mean                  =  -2.1760120567895E-05
(PID.TID 0000.0001) %MON vort_p_sd                    =   9.7244361935135E-05
(PID.TID 0000.0001) %MON surfExpan_theta_mean         =  -1.5620205974021E-07
(PID.TID 0000.0001) %MON surfExpan_salt_mean          =   1.2563421809371E-08
(PID.TID 0000.0001) // =======================================================
(PID.TID 0000.0001) // End MONITOR dynamic field statistics
(PID.TID 0000.0001) // =======================================================
(PID.TID 0000.0001)  ploadbar=  1.01088278095097E+05
(PID.TID 0000.0001) %SBO sbo_mass                     =   1.3737549499302E+21
(PID.TID 0000.0001) %SBO sbo_mass_fw                  =   4.2134559650014E+16
(PID.TID 0000.0001) %SBO sbo_zoamc                    =   9.6896486240773E+24
(PID.TID 0000.0001) %SBO sbo_zoamp                    =   2.9276559865816E+30
(PID.TID 0000.0001) // =======================================================
(PID.TID 0000.0001) // Begin MONITOR SEAICE statistics
(PID.TID 0000.0001) // =======================================================
(PID.TID 0000.0001) %MON seaice_tsnumber              =                  3504
(PID.TID 0000.0001) %MON seaice_time_sec              =   1.2614400000000E+07
(PID.TID 0000.0001) %MON seaice_uice_max              =   4.0000000000000E-01
(PID.TID 0000.0001) %MON seaice_uice_min              =  -4.0000000000000E-01
(PID.TID 0000.0001) %MON seaice_uice_mean             =   1.3416586585114E-03
(PID.TID 0000.0001) %MON seaice_uice_sd               =   1.7385441791138E-01
(PID.TID 0000.0001) %MON seaice_uice_del2             =   1.3558075794812E-04
(PID.TID 0000.0001) %MON seaice_vice_max              =   4.0000000000000E-01
(PID.TID 0000.0001) %MON seaice_vice_min              =  -4.0000000000000E-01
(PID.TID 0000.0001) %MON seaice_vice_mean             =  -1.3642469826297E-02
(PID.TID 0000.0001) %MON seaice_vice_sd               =   1.7203221343063E-01
(PID.TID 0000.0001) %MON seaice_vice_del2             =   1.3397381322976E-04
(PID.TID 0000.0001) %MON seaice_area_max              =   9.7000000000000E-01
(PID.TID 0000.0001) %MON seaice_area_min              =   0.0000000000000E+00
(PID.TID 0000.0001) %MON seaice_area_mean             =   6.3455334778372E-02
(PID.TID 0000.0001) %MON seaice_area_sd               =   2.2855735132333E-01
(PID.TID 0000.0001) %MON seaice_area_del2             =   2.2093936748165E-04
(PID.TID 0000.0001) %MON seaice_heff_max              =   5.4882331650291E+00
(PID.TID 0000.0001) %MON seaice_heff_min              =   0.0000000000000E+00
(PID.TID 0000.0001) %MON seaice_heff_mean             =   8.4943239728463E-02
(PID.TID 0000.0001) %MON seaice_heff_sd               =   4.0122521818623E-01
(PID.TID 0000.0001) %MON seaice_heff_del2             =   2.1501224138346E-04
(PID.TID 0000.0001) %MON seaice_hsnow_max             =   1.0146052114039E+00
(PID.TID 0000.0001) %MON seaice_hsnow_min             =  -7.7267868976539E-05
(PID.TID 0000.0001) %MON seaice_hsnow_mean            =   1.1071943119404E-02
(PID.TID 0000.0001) %MON seaice_hsnow_sd              =   5.4349718051174E-02
(PID.TID 0000.0001) %MON seaice_hsnow_del2            =   4.4683608889278E-05
(PID.TID 0000.0001) // =======================================================
(PID.TID 0000.0001) // End MONITOR SEAICE statistics
(PID.TID 0000.0001) // =======================================================
(PID.TID 0000.0001) // =======================================================
(PID.TID 0000.0001) // Begin MONITOR EXF statistics
(PID.TID 0000.0001) // =======================================================
(PID.TID 0000.0001) %MON exf_tsnumber                 =                  3504
(PID.TID 0000.0001) %MON exf_time_sec                 =   1.2614400000000E+07
(PID.TID 0000.0001) %MON exf_ustress_max              =   1.0689419507980E+00
(PID.TID 0000.0001) %MON exf_ustress_min              =  -9.7425293922424E-01
(PID.TID 0000.0001) %MON exf_ustress_mean             =   1.3479582094127E-02
(PID.TID 0000.0001) %MON exf_ustress_sd               =   1.3757625812486E-01
(PID.TID 0000.0001) %MON exf_ustress_del2             =   8.3301926847449E-05
(PID.TID 0000.0001) %MON exf_vstress_max              =   9.1810378432274E-01
(PID.TID 0000.0001) %MON exf_vstress_min              =  -9.6884948015213E-01
(PID.TID 0000.0001) %MON exf_vstress_mean             =   6.4878148788062E-04
(PID.TID 0000.0001) %MON exf_vstress_sd               =   1.0014277228988E-01
(PID.TID 0000.0001) %MON exf_vstress_del2             =   6.8436375280729E-05
(PID.TID 0000.0001) %MON exf_hflux_max                =   1.1233439660830E+03
(PID.TID 0000.0001) %MON exf_hflux_min                =  -5.5457006061845E+02
(PID.TID 0000.0001) %MON exf_hflux_mean               =   3.6990273734194E+01
(PID.TID 0000.0001) %MON exf_hflux_sd                 =   1.8163209248618E+02
(PID.TID 0000.0001) %MON exf_hflux_del2               =   4.2809872573794E-01
(PID.TID 0000.0001) %MON exf_sflux_max                =   1.8753515989667E-07
(PID.TID 0000.0001) %MON exf_sflux_min                =  -3.1903483292745E-06
(PID.TID 0000.0001) %MON exf_sflux_mean               =  -2.8791363075580E-09
(PID.TID 0000.0001) %MON exf_sflux_sd                 =   8.2360405852589E-08
(PID.TID 0000.0001) %MON exf_sflux_del2               =   2.2741737118626E-10
(PID.TID 0000.0001) %MON exf_wspeed_max               =   2.1747757911682E+01
(PID.TID 0000.0001) %MON exf_wspeed_min               =   4.5171645283699E-01
(PID.TID 0000.0001) %MON exf_wspeed_mean              =   6.9145142769840E+00
(PID.TID 0000.0001) %MON exf_wspeed_sd                =   3.3907369120128E+00
(PID.TID 0000.0001) %MON exf_wspeed_del2              =   1.6878042961943E-02
(PID.TID 0000.0001) %MON exf_atemp_max                =   3.1031335487366E+02
(PID.TID 0000.0001) %MON exf_atemp_min                =   2.2812844123840E+02
(PID.TID 0000.0001) %MON exf_atemp_mean               =   2.8969302668465E+02
(PID.TID 0000.0001) %MON exf_atemp_sd                 =   1.1379368631382E+01
(PID.TID 0000.0001) %MON exf_atemp_del2               =   3.4874076593752E-02
(PID.TID 0000.0001) %MON exf_aqh_max                  =   2.2745097987354E-02
(PID.TID 0000.0001) %MON exf_aqh_min                  =   3.8203865187825E-05
(PID.TID 0000.0001) %MON exf_aqh_mean                 =   1.1070233996496E-02
(PID.TID 0000.0001) %MON exf_aqh_sd                   =   5.7188517777648E-03
(PID.TID 0000.0001) %MON exf_aqh_del2                 =   2.0972141415135E-05
(PID.TID 0000.0001) %MON exf_lwflux_max               =   2.0311101115863E+02
(PID.TID 0000.0001) %MON exf_lwflux_min               =  -4.5552496105874E+01
(PID.TID 0000.0001) %MON exf_lwflux_mean              =   4.4201017366926E+01
(PID.TID 0000.0001) %MON exf_lwflux_sd                =   2.3979113324060E+01
(PID.TID 0000.0001) %MON exf_lwflux_del2              =   1.1259692847342E-01
(PID.TID 0000.0001) %MON exf_evap_max                 =   2.1094469577332E-07
(PID.TID 0000.0001) %MON exf_evap_min                 =  -3.6056524028844E-08
(PID.TID 0000.0001) %MON exf_evap_mean                =   4.0534997637398E-08
(PID.TID 0000.0001) %MON exf_evap_sd                  =   2.7392184380097E-08
(PID.TID 0000.0001) %MON exf_evap_del2                =   8.8612963765977E-11
(PID.TID 0000.0001) %MON exf_precip_max               =   1.1666218675543E-06
(PID.TID 0000.0001) %MON exf_precip_min               =  -2.8915873251378E-08
(PID.TID 0000.0001) %MON exf_precip_mean              =   3.8762863071012E-08
(PID.TID 0000.0001) %MON exf_precip_sd                =   6.4522070156089E-08
(PID.TID 0000.0001) %MON exf_precip_del2              =   1.9790191868686E-10
(PID.TID 0000.0001) %MON exf_swflux_max               =   4.6561129760742E+01
(PID.TID 0000.0001) %MON exf_swflux_min               =  -6.1722453062445E+02
(PID.TID 0000.0001) %MON exf_swflux_mean              =  -1.2904225836271E+02
(PID.TID 0000.0001) %MON exf_swflux_sd                =   1.5171333457640E+02
(PID.TID 0000.0001) %MON exf_swflux_del2              =   3.8439811294452E-01
(PID.TID 0000.0001) %MON exf_swdown_max               =   6.7127566528320E+02
(PID.TID 0000.0001) %MON exf_swdown_min               =  -6.6515899658203E+01
(PID.TID 0000.0001) %MON exf_swdown_mean              =   1.4033617899137E+02
(PID.TID 0000.0001) %MON exf_swdown_sd                =   1.6419588575056E+02
(PID.TID 0000.0001) %MON exf_swdown_del2              =   4.1869782150425E-01
(PID.TID 0000.0001) %MON exf_lwdown_max               =   4.6666184997559E+02
(PID.TID 0000.0001) %MON exf_lwdown_min               =   9.7291194915771E+01
(PID.TID 0000.0001) %MON exf_lwdown_mean              =   3.6620146414850E+02
(PID.TID 0000.0001) %MON exf_lwdown_sd                =   5.9842911143372E+01
(PID.TID 0000.0001) %MON exf_lwdown_del2              =   7.0101515601397E-01
(PID.TID 0000.0001) %MON exf_apressure_max            =   1.0380930078125E+05
(PID.TID 0000.0001) %MON exf_apressure_min            =   9.5583203125000E+04
(PID.TID 0000.0001) %MON exf_apressure_mean           =   1.0108905412280E+05
(PID.TID 0000.0001) %MON exf_apressure_sd             =   1.0670048925677E+03
(PID.TID 0000.0001) %MON exf_apressure_del2           =   2.0691349899492E+02
(PID.TID 0000.0001) %MON exf_runoff_max               =   3.1856565641885E-06
(PID.TID 0000.0001) %MON exf_runoff_min               =   0.0000000000000E+00
(PID.TID 0000.0001) %MON exf_runoff_mean              =   4.6512708739432E-09
(PID.TID 0000.0001) %MON exf_runoff_sd                =   4.0722969529259E-08
(PID.TID 0000.0001) %MON exf_runoff_del2              =   1.1789714852047E-10
(PID.TID 0000.0001) // =======================================================
(PID.TID 0000.0001) // End MONITOR EXF statistics
(PID.TID 0000.0001) // =======================================================
 cg2d: Sum(rhs),rhsMax =  -5.38512499394846E+01  1.31049186917090E+00
(PID.TID 0000.0001)  ploadbar=  1.01089054122795E+05
 cg2d: Sum(rhs),rhsMax =  -5.40488866184243E+01  1.30628360085318E+00
(PID.TID 0000.0001)  ploadbar=  1.01089830150493E+05
 cg2d: Sum(rhs),rhsMax =  -5.42579797088151E+01  1.30182295446831E+00
(PID.TID 0000.0001)  ploadbar=  1.01090606178192E+05
 cg2d: Sum(rhs),rhsMax =  -5.44690884068044E+01  1.29734434851661E+00
(PID.TID 0000.0001)  ploadbar=  1.01091382205890E+05
 cg2d: Sum(rhs),rhsMax =  -5.46565651176179E+01  1.29347969160731E+00
(PID.TID 0000.0001)  ploadbar=  1.01091783353874E+05
 cg2d: Sum(rhs),rhsMax =  -5.48325706281798E+01  1.28992111605490E+00
(PID.TID 0000.0001)  ploadbar=  1.01092184501859E+05
 cg2d: Sum(rhs),rhsMax =  -5.49983412157153E+01  1.28663341424364E+00
(PID.TID 0000.0001)  ploadbar=  1.01092585649844E+05
 cg2d: Sum(rhs),rhsMax =  -5.51476020174657E+01  1.28375453377869E+00
(PID.TID 0000.0001)  ploadbar=  1.01092986797828E+05
 cg2d: Sum(rhs),rhsMax =  -5.52774048618329E+01  1.28134759200660E+00
(PID.TID 0000.0001)  ploadbar=  1.01093387945813E+05
 cg2d: Sum(rhs),rhsMax =  -5.53873343985320E+01  1.27941998541412E+00
(PID.TID 0000.0001)  ploadbar=  1.01093789093798E+05
 cg2d: Sum(rhs),rhsMax =  -5.54892694063443E+01  1.27763765393900E+00
(PID.TID 0000.0001)  ploadbar=  1.01093885995982E+05
 cg2d: Sum(rhs),rhsMax =  -5.55620871885285E+01  1.27647585945420E+00
(PID.TID 0000.0001)  ploadbar=  1.01093982898167E+05
 cg2d: Sum(rhs),rhsMax =  -5.56160254507211E+01  1.27569304572351E+00
(PID.TID 0000.0001)  ploadbar=  1.01094079800352E+05
 cg2d: Sum(rhs),rhsMax =  -5.56541072943704E+01  1.27521700304329E+00
(PID.TID 0000.0001)  ploadbar=  1.01094176702536E+05
 cg2d: Sum(rhs),rhsMax =  -5.56781243876054E+01  1.27500109576982E+00
(PID.TID 0000.0001)  ploadbar=  1.01094273604721E+05
 cg2d: Sum(rhs),rhsMax =  -5.56917338117307E+01  1.27495478695154E+00
(PID.TID 0000.0001)  ploadbar=  1.01094370506905E+05
 cg2d: Sum(rhs),rhsMax =  -5.57133838161610E+01  1.27481959767446E+00
(PID.TID 0000.0001)  ploadbar=  1.01093443163608E+05
 cg2d: Sum(rhs),rhsMax =  -5.57296785795874E+01  1.27490069095675E+00
(PID.TID 0000.0001)  ploadbar=  1.01092515820310E+05
 cg2d: Sum(rhs),rhsMax =  -5.57349793531753E+01  1.27532794654864E+00
(PID.TID 0000.0001)  ploadbar=  1.01091588477012E+05
 cg2d: Sum(rhs),rhsMax =  -5.57418568128198E+01  1.27581209559242E+00
(PID.TID 0000.0001)  ploadbar=  1.01090661133714E+05
 cg2d: Sum(rhs),rhsMax =  -5.57483417670153E+01  1.27639521934109E+00
(PID.TID 0000.0001)  ploadbar=  1.01089733790417E+05
 cg2d: Sum(rhs),rhsMax =  -5.57539916264506E+01  1.27708342462496E+00
(PID.TID 0000.0001)  ploadbar=  1.01088806447119E+05
 cg2d: Sum(rhs),rhsMax =  -5.57615230447845E+01  1.27770692454032E+00
(PID.TID 0000.0001)  ploadbar=  1.01088859504385E+05
 cg2d: Sum(rhs),rhsMax =  -5.57770361859197E+01  1.27812093456430E+00
(PID.TID 0000.0001)  ploadbar=  1.01088912561651E+05
 cg2d: Sum(rhs),rhsMax =  -5.58052895565990E+01  1.27821708013012E+00
(PID.TID 0000.0001)  ploadbar=  1.01088965618916E+05
 cg2d: Sum(rhs),rhsMax =  -5.58634832643629E+01  1.27760305966822E+00
(PID.TID 0000.0001)  ploadbar=  1.01089018676182E+05
 cg2d: Sum(rhs),rhsMax =  -5.59478326114361E+01  1.27637001289773E+00
(PID.TID 0000.0001)  ploadbar=  1.01089071733448E+05
 cg2d: Sum(rhs),rhsMax =  -5.60466935949335E+01  1.27479158229618E+00
(PID.TID 0000.0001)  ploadbar=  1.01089124790714E+05
 cg2d: Sum(rhs),rhsMax =  -5.61551482402304E+01  1.27305364998240E+00
(PID.TID 0000.0001)  ploadbar=  1.01089230459680E+05
 cg2d: Sum(rhs),rhsMax =  -5.62763431607790E+01  1.27107936288365E+00
(PID.TID 0000.0001)  ploadbar=  1.01089336128646E+05
 cg2d: Sum(rhs),rhsMax =  -5.64029993347871E+01  1.26903346458769E+00
(PID.TID 0000.0001)  ploadbar=  1.01089441797612E+05
 cg2d: Sum(rhs),rhsMax =  -5.65328874664040E+01  1.26696817857926E+00
(PID.TID 0000.0001)  ploadbar=  1.01089547466577E+05
 cg2d: Sum(rhs),rhsMax =  -5.66654085155078E+01  1.26489741833604E+00
(PID.TID 0000.0001)  ploadbar=  1.01089653135543E+05
 cg2d: Sum(rhs),rhsMax =  -5.67991909553748E+01  1.26285111011358E+00
(PID.TID 0000.0001)  ploadbar=  1.01089758804509E+05
 cg2d: Sum(rhs),rhsMax =  -5.69222546990751E+01  1.26097893436847E+00
(PID.TID 0000.0001)  ploadbar=  1.01090225424117E+05
 cg2d: Sum(rhs),rhsMax =  -5.70380078335697E+01  1.25920477749407E+00
(PID.TID 0000.0001)  ploadbar=  1.01090692043725E+05
 cg2d: Sum(rhs),rhsMax =  -5.71504792167661E+01  1.25743820204670E+00
(PID.TID 0000.0001)  ploadbar=  1.01091158663333E+05
 cg2d: Sum(rhs),rhsMax =  -5.72599569947340E+01  1.25567257422747E+00
(PID.TID 0000.0001)  ploadbar=  1.01091625282940E+05
 cg2d: Sum(rhs),rhsMax =  -5.73685814059897E+01  1.25385602568157E+00
(PID.TID 0000.0001)  ploadbar=  1.01092091902548E+05
 cg2d: Sum(rhs),rhsMax =  -5.74792439650597E+01  1.25192735498683E+00
(PID.TID 0000.0001)  ploadbar=  1.01092558522156E+05
 cg2d: Sum(rhs),rhsMax =  -5.75953662774687E+01  1.24991029447460E+00
(PID.TID 0000.0001)  ploadbar=  1.01093809264398E+05
 cg2d: Sum(rhs),rhsMax =  -5.77183307150618E+01  1.24777805951353E+00
(PID.TID 0000.0001)  ploadbar=  1.01095060006640E+05
 cg2d: Sum(rhs),rhsMax =  -5.78543098704608E+01  1.24540145873878E+00
(PID.TID 0000.0001)  ploadbar=  1.01096310748882E+05
 cg2d: Sum(rhs),rhsMax =  -5.79979796244761E+01  1.24289830424698E+00
(PID.TID 0000.0001)  ploadbar=  1.01097561491124E+05
 cg2d: Sum(rhs),rhsMax =  -5.81463975856044E+01  1.24033241232764E+00
(PID.TID 0000.0001)  ploadbar=  1.01098812233366E+05
 cg2d: Sum(rhs),rhsMax =  -5.82983607734316E+01  1.23772665495536E+00
(PID.TID 0000.0001)  ploadbar=  1.01100062975608E+05
 cg2d: Sum(rhs),rhsMax =  -5.84548870352418E+01  1.23503362521783E+00
(PID.TID 0000.0001)  ploadbar=  1.01099993154061E+05
 cg2d: Sum(rhs),rhsMax =  -5.86156184884463E+01  1.23225983210976E+00
(PID.TID 0000.0001)  ploadbar=  1.01099923332513E+05
 cg2d: Sum(rhs),rhsMax =  -5.87749932545996E+01  1.22952342610004E+00
(PID.TID 0000.0001)  ploadbar=  1.01099853510966E+05
 cg2d: Sum(rhs),rhsMax =  -5.89378307110582E+01  1.22672322696417E+00
(PID.TID 0000.0001)  ploadbar=  1.01099783689419E+05
 cg2d: Sum(rhs),rhsMax =  -5.91055847624486E+01  1.22383167285949E+00
(PID.TID 0000.0001)  ploadbar=  1.01099713867871E+05
 cg2d: Sum(rhs),rhsMax =  -5.92765588387498E+01  1.22088456779824E+00
(PID.TID 0000.0001)  ploadbar=  1.01099644046324E+05
 cg2d: Sum(rhs),rhsMax =  -5.94559061397463E+01  1.21779034922533E+00
(PID.TID 0000.0001)  ploadbar=  1.01099517381915E+05
 cg2d: Sum(rhs),rhsMax =  -5.96398076243449E+01  1.21462079724996E+00
(PID.TID 0000.0001)  ploadbar=  1.01099390717506E+05
 cg2d: Sum(rhs),rhsMax =  -5.98193008450883E+01  1.21155614744083E+00
(PID.TID 0000.0001)  ploadbar=  1.01099264053097E+05
 cg2d: Sum(rhs),rhsMax =  -5.99928432985962E+01  1.20862704575433E+00
(PID.TID 0000.0001)  ploadbar=  1.01099137388688E+05
 cg2d: Sum(rhs),rhsMax =  -6.01568738288910E+01  1.20589937204713E+00
(PID.TID 0000.0001)  ploadbar=  1.01099010724279E+05
 cg2d: Sum(rhs),rhsMax =  -6.03132518712913E+01  1.20333281752339E+00
(PID.TID 0000.0001)  ploadbar=  1.01098884059870E+05
 cg2d: Sum(rhs),rhsMax =  -6.04602966272243E+01  1.20093330677914E+00
(PID.TID 0000.0001)  ploadbar=  1.01099628686003E+05
 cg2d: Sum(rhs),rhsMax =  -6.05975192016266E+01  1.19870535517198E+00
(PID.TID 0000.0001)  ploadbar=  1.01100373312136E+05
 cg2d: Sum(rhs),rhsMax =  -6.07295783762598E+01  1.19655473923612E+00
(PID.TID 0000.0001)  ploadbar=  1.01101117938269E+05
 cg2d: Sum(rhs),rhsMax =  -6.08560269569810E+01  1.19448949587502E+00
(PID.TID 0000.0001)  ploadbar=  1.01101862564402E+05
 cg2d: Sum(rhs),rhsMax =  -6.09753883913527E+01  1.19253430325325E+00
(PID.TID 0000.0001)  ploadbar=  1.01102607190535E+05
 cg2d: Sum(rhs),rhsMax =  -6.10472176025587E+01  1.19147295200631E+00
(PID.TID 0000.0001)  ploadbar=  1.01103351816668E+05
 cg2d: Sum(rhs),rhsMax =  -6.09261965878459E+01  1.19421113577111E+00
(PID.TID 0000.0001)  ploadbar=  1.01103914504107E+05
 cg2d: Sum(rhs),rhsMax =  -6.08204257706863E+01  1.19668668615509E+00
(PID.TID 0000.0001)  ploadbar=  1.01104477191546E+05
 cg2d: Sum(rhs),rhsMax =  -6.07493438244315E+01  1.19851062995099E+00
(PID.TID 0000.0001)  ploadbar=  1.01105039878984E+05
 cg2d: Sum(rhs),rhsMax =  -6.07213649333999E+01  1.19951224710326E+00
(PID.TID 0000.0001)  ploadbar=  1.01105602566422E+05
 cg2d: Sum(rhs),rhsMax =  -6.07185038267029E+01  1.20004131720090E+00
(PID.TID 0000.0001)  ploadbar=  1.01106165253861E+05
 cg2d: Sum(rhs),rhsMax =  -6.07407870575008E+01  1.20009321457465E+00
(PID.TID 0000.0001)  ploadbar=  1.01106727941299E+05
 cg2d: Sum(rhs),rhsMax =  -6.07325020210183E+01  1.20073943909351E+00
(PID.TID 0000.0001)  ploadbar=  1.01106038296415E+05
 cg2d: Sum(rhs),rhsMax =  -6.07134590584666E+01  1.20158813895281E+00
(PID.TID 0000.0001)  ploadbar=  1.01105348651532E+05
 cg2d: Sum(rhs),rhsMax =  -6.07029759756530E+01  1.20225899948614E+00
(PID.TID 0000.0001)  ploadbar=  1.01104659006648E+05
 cg2d: Sum(rhs),rhsMax =  -6.07239598698661E+01  1.20229801122557E+00
(PID.TID 0000.0001)  ploadbar=  1.01103969361764E+05
 cg2d: Sum(rhs),rhsMax =  -6.09040790669356E+01  1.19918649544708E+00
(PID.TID 0000.0001)  ploadbar=  1.01103279716880E+05
 cg2d: Sum(rhs),rhsMax =  -6.12572911032192E+01  1.19270572576319E+00
(PID.TID 0000.0001)  ploadbar=  1.01102590071997E+05
 cg2d: Sum(rhs),rhsMax =  -6.17696798891068E+01  1.18324812240768E+00
(PID.TID 0000.0001)  ploadbar=  1.01103144254783E+05
 cg2d: Sum(rhs),rhsMax =  -6.24239089016307E+01  1.17127718312523E+00
(PID.TID 0000.0001)  ploadbar=  1.01103698437569E+05
 cg2d: Sum(rhs),rhsMax =  -6.26904185183598E+01  1.16672275556109E+00
(PID.TID 0000.0001)  ploadbar=  1.01104252620356E+05
 cg2d: Sum(rhs),rhsMax =  -6.28058770593456E+01  1.16499937117983E+00
(PID.TID 0000.0001)  ploadbar=  1.01104806803142E+05
 cg2d: Sum(rhs),rhsMax =  -6.29207920046790E+01  1.16328875082319E+00
(PID.TID 0000.0001)  ploadbar=  1.01105360985929E+05
 cg2d: Sum(rhs),rhsMax =  -6.30344903706795E+01  1.16160263089949E+00
(PID.TID 0000.0001)  ploadbar=  1.01105915168715E+05
 cg2d: Sum(rhs),rhsMax =  -6.31445018106642E+01  1.15996616520977E+00
(PID.TID 0000.0001)  ploadbar=  1.01106792428384E+05
 cg2d: Sum(rhs),rhsMax =  -6.32529390050572E+01  1.15833562319282E+00
(PID.TID 0000.0001)  ploadbar=  1.01107669688053E+05
 cg2d: Sum(rhs),rhsMax =  -6.33584760428955E+01  1.15673553033029E+00
(PID.TID 0000.0001)  ploadbar=  1.01108546947722E+05
 cg2d: Sum(rhs),rhsMax =  -6.34595479417253E+01  1.15519514147365E+00
(PID.TID 0000.0001)  ploadbar=  1.01109424207391E+05
 cg2d: Sum(rhs),rhsMax =  -6.35560281749412E+01  1.15371645889790E+00
(PID.TID 0000.0001)  ploadbar=  1.01110301467060E+05
 cg2d: Sum(rhs),rhsMax =  -6.36475070780395E+01  1.15230238974176E+00
(PID.TID 0000.0001)  ploadbar=  1.01111178726729E+05
 cg2d: Sum(rhs),rhsMax =  -6.37356902636439E+01  1.15099859070883E+00
(PID.TID 0000.0001)  ploadbar=  1.01112834359122E+05
 cg2d: Sum(rhs),rhsMax =  -6.38257691110168E+01  1.14970482009582E+00
(PID.TID 0000.0001)  ploadbar=  1.01114489991515E+05
 cg2d: Sum(rhs),rhsMax =  -6.39179388032011E+01  1.14841602497235E+00
(PID.TID 0000.0001)  ploadbar=  1.01116145623908E+05
 cg2d: Sum(rhs),rhsMax =  -6.40121911362803E+01  1.14713240713377E+00
(PID.TID 0000.0001)  ploadbar=  1.01117801256301E+05
 cg2d: Sum(rhs),rhsMax =  -6.41101271921484E+01  1.14582586862242E+00
(PID.TID 0000.0001)  ploadbar=  1.01119456888694E+05
 cg2d: Sum(rhs),rhsMax =  -6.42125860305089E+01  1.14448107834873E+00
(PID.TID 0000.0001)  ploadbar=  1.01121112521087E+05
 cg2d: Sum(rhs),rhsMax =  -6.42170830435393E+01  1.14487284501729E+00
(PID.TID 0000.0001)  ploadbar=  1.01122428013007E+05
 cg2d: Sum(rhs),rhsMax =  -6.42089423799950E+01  1.14548089002987E+00
(PID.TID 0000.0001)  ploadbar=  1.01123743504928E+05
 cg2d: Sum(rhs),rhsMax =  -6.42583972104777E+01  1.14505357259226E+00
(PID.TID 0000.0001)  ploadbar=  1.01125058996848E+05
 cg2d: Sum(rhs),rhsMax =  -6.43688826922875E+01  1.14353310147180E+00
(PID.TID 0000.0001)  ploadbar=  1.01126374488769E+05
 cg2d: Sum(rhs),rhsMax =  -6.45457251631355E+01  1.14083672712308E+00
(PID.TID 0000.0001)  ploadbar=  1.01127689980690E+05
 cg2d: Sum(rhs),rhsMax =  -6.47829487497674E+01  1.13708870137044E+00
(PID.TID 0000.0001)  ploadbar=  1.01129005472610E+05
 cg2d: Sum(rhs),rhsMax =  -6.49331751118456E+01  1.13488489803338E+00
(PID.TID 0000.0001)  ploadbar=  1.01129441914724E+05
 cg2d: Sum(rhs),rhsMax =  -6.50275484045655E+01  1.13365786364363E+00
(PID.TID 0000.0001)  ploadbar=  1.01129878356838E+05
 cg2d: Sum(rhs),rhsMax =  -6.51191985511295E+01  1.13247334373443E+00
(PID.TID 0000.0001)  ploadbar=  1.01130314798952E+05
 cg2d: Sum(rhs),rhsMax =  -6.52112401981412E+01  1.13127809467275E+00
(PID.TID 0000.0001)  ploadbar=  1.01130751241066E+05
 cg2d: Sum(rhs),rhsMax =  -6.52991764985263E+01  1.13014963446605E+00
(PID.TID 0000.0001)  ploadbar=  1.01131187683180E+05
 cg2d: Sum(rhs),rhsMax =  -6.53813711211666E+01  1.12911726989224E+00
(PID.TID 0000.0001)  ploadbar=  1.01131624125294E+05
 cg2d: Sum(rhs),rhsMax =  -6.54699308215158E+01  1.12790835388111E+00
(PID.TID 0000.0001)  ploadbar=  1.01132742994063E+05
 cg2d: Sum(rhs),rhsMax =  -6.55466577872461E+01  1.12683530070166E+00
(PID.TID 0000.0001)  ploadbar=  1.01133861862831E+05
 cg2d: Sum(rhs),rhsMax =  -6.56134752139741E+01  1.12586609454939E+00
(PID.TID 0000.0001)  ploadbar=  1.01134980731600E+05
 cg2d: Sum(rhs),rhsMax =  -6.56750013220496E+01  1.12492143009024E+00
(PID.TID 0000.0001)  ploadbar=  1.01136099600369E+05
 cg2d: Sum(rhs),rhsMax =  -6.57305317593099E+01  1.12401166330774E+00
(PID.TID 0000.0001)  ploadbar=  1.01137218469137E+05
 cg2d: Sum(rhs),rhsMax =  -6.57795641625088E+01  1.12314035246490E+00
(PID.TID 0000.0001)  ploadbar=  1.01138337337906E+05
 cg2d: Sum(rhs),rhsMax =  -6.58221440307456E+01  1.12242767974853E+00
(PID.TID 0000.0001)  ploadbar=  1.01138990439521E+05
 cg2d: Sum(rhs),rhsMax =  -6.58609010699941E+01  1.12182705671555E+00
(PID.TID 0000.0001)  ploadbar=  1.01139643541135E+05
 cg2d: Sum(rhs),rhsMax =  -6.59013600139208E+01  1.12124456225800E+00
(PID.TID 0000.0001)  ploadbar=  1.01140296642749E+05
 cg2d: Sum(rhs),rhsMax =  -6.59448768268126E+01  1.12065762716710E+00
(PID.TID 0000.0001)  ploadbar=  1.01140949744364E+05
 cg2d: Sum(rhs),rhsMax =  -6.54096413198421E+01  1.13002895439936E+00
(PID.TID 0000.0001)  ploadbar=  1.01141602845978E+05
 cg2d: Sum(rhs),rhsMax =  -6.45217612389120E+01  1.14583039874103E+00
(PID.TID 0000.0001)  ploadbar=  1.01142255947592E+05
 cg2d: Sum(rhs),rhsMax =  -6.35980377248599E+01  1.16271558609553E+00
(PID.TID 0000.0001)  ploadbar=  1.01142744952462E+05
 cg2d: Sum(rhs),rhsMax =  -6.26692863959065E+01  1.18017804416507E+00
(PID.TID 0000.0001)  ploadbar=  1.01143233957332E+05
 cg2d: Sum(rhs),rhsMax =  -6.17619280623419E+01  1.19773569177841E+00
(PID.TID 0000.0001)  ploadbar=  1.01143722962201E+05
 cg2d: Sum(rhs),rhsMax =  -6.08576315680949E+01  1.21573764186838E+00
(PID.TID 0000.0001)  ploadbar=  1.01144211967071E+05
 cg2d: Sum(rhs),rhsMax =  -5.99694891294720E+01  1.23393224410843E+00
(PID.TID 0000.0001)  ploadbar=  1.01144700971940E+05
 cg2d: Sum(rhs),rhsMax =  -5.91602484678523E+01  1.25098744244721E+00
(PID.TID 0000.0001)  ploadbar=  1.01145189976810E+05
 cg2d: Sum(rhs),rhsMax =  -5.84306678985861E+01  1.26681715354871E+00
(PID.TID 0000.0001)  ploadbar=  1.01146070302159E+05
 cg2d: Sum(rhs),rhsMax =  -5.78071937268337E+01  1.28071290521576E+00
(PID.TID 0000.0001)  ploadbar=  1.01146950627509E+05
 cg2d: Sum(rhs),rhsMax =  -5.73088749158533E+01  1.29210070064005E+00
(PID.TID 0000.0001)  ploadbar=  1.01147830952858E+05
 cg2d: Sum(rhs),rhsMax =  -5.69372849414582E+01  1.30080290605603E+00
(PID.TID 0000.0001)  ploadbar=  1.01148711278208E+05
 cg2d: Sum(rhs),rhsMax =  -5.66931797351192E+01  1.30668954288508E+00
(PID.TID 0000.0001)  ploadbar=  1.01149591603557E+05
 cg2d: Sum(rhs),rhsMax =  -5.65505357298510E+01  1.31028930855943E+00
(PID.TID 0000.0001)  ploadbar=  1.01150471928906E+05
 cg2d: Sum(rhs),rhsMax =  -5.65120984249830E+01  1.31143245971939E+00
(PID.TID 0000.0001)  ploadbar=  1.01150312956801E+05
 cg2d: Sum(rhs),rhsMax =  -5.65146579126540E+01  1.31157115611180E+00
(PID.TID 0000.0001)  ploadbar=  1.01150153984696E+05
 cg2d: Sum(rhs),rhsMax =  -5.65573700052306E+01  1.31072336162629E+00
(PID.TID 0000.0001)  ploadbar=  1.01149995012590E+05
 cg2d: Sum(rhs),rhsMax =  -5.66321077808200E+01  1.30908155785536E+00
(PID.TID 0000.0001)  ploadbar=  1.01149836040485E+05
 cg2d: Sum(rhs),rhsMax =  -5.67348705104323E+01  1.30674283632120E+00
(PID.TID 0000.0001)  ploadbar=  1.01149677068380E+05
 cg2d: Sum(rhs),rhsMax =  -5.68684249648879E+01  1.30364084244705E+00
(PID.TID 0000.0001)  ploadbar=  1.01149518096274E+05
 cg2d: Sum(rhs),rhsMax =  -5.71500148012502E+01  1.29727520438537E+00
(PID.TID 0000.0001)  ploadbar=  1.01148826412879E+05
 cg2d: Sum(rhs),rhsMax =  -5.74259710471622E+01  1.29118679029727E+00
(PID.TID 0000.0001)  ploadbar=  1.01148134729483E+05
 cg2d: Sum(rhs),rhsMax =  -5.77709651117119E+01  1.28370455673527E+00
(PID.TID 0000.0001)  ploadbar=  1.01147443046088E+05
 cg2d: Sum(rhs),rhsMax =  -5.82390632616503E+01  1.27369456995605E+00
(PID.TID 0000.0001)  ploadbar=  1.01146751362692E+05
 cg2d: Sum(rhs),rhsMax =  -5.76905435977426E+01  1.28619710410807E+00
(PID.TID 0000.0001)  ploadbar=  1.01146059679297E+05
 cg2d: Sum(rhs),rhsMax =  -5.71128491369821E+01  1.29968234777179E+00
(PID.TID 0000.0001)  ploadbar=  1.01145367995901E+05
 cg2d: Sum(rhs),rhsMax =  -5.65745533929780E+01  1.31249019950201E+00
(PID.TID 0000.0001)  ploadbar=  1.01145278734782E+05
 cg2d: Sum(rhs),rhsMax =  -5.60686072757923E+01  1.32473696490458E+00
(PID.TID 0000.0001)  ploadbar=  1.01145189473664E+05
 cg2d: Sum(rhs),rhsMax =  -5.55859544949408E+01  1.33660485517411E+00
(PID.TID 0000.0001)  ploadbar=  1.01145100212545E+05
 cg2d: Sum(rhs),rhsMax =  -5.50956236742344E+01  1.34883022858333E+00
(PID.TID 0000.0001)  ploadbar=  1.01145010951427E+05
 cg2d: Sum(rhs),rhsMax =  -5.47123282805294E+01  1.35857284336609E+00
(PID.TID 0000.0001)  ploadbar=  1.01144921690309E+05
 cg2d: Sum(rhs),rhsMax =  -5.44725630103767E+01  1.36481227071165E+00
(PID.TID 0000.0001)  ploadbar=  1.01144832429190E+05
 cg2d: Sum(rhs),rhsMax =  -5.43363975224376E+01  1.36855200691233E+00
(PID.TID 0000.0001)  ploadbar=  1.01144666659087E+05
 cg2d: Sum(rhs),rhsMax =  -5.42628073247040E+01  1.37077155849803E+00
(PID.TID 0000.0001)  ploadbar=  1.01144500888984E+05
 cg2d: Sum(rhs),rhsMax =  -5.42032726544841E+01  1.37268343134246E+00
(PID.TID 0000.0001)  ploadbar=  1.01144335118881E+05
 cg2d: Sum(rhs),rhsMax =  -5.41579278600928E+01  1.37428481376911E+00
(PID.TID 0000.0001)  ploadbar=  1.01144169348778E+05
 cg2d: Sum(rhs),rhsMax =  -5.41172662687698E+01  1.37581591061185E+00
(PID.TID 0000.0001)  ploadbar=  1.01144003578675E+05
 cg2d: Sum(rhs),rhsMax =  -5.40700848575808E+01  1.37756030433658E+00
(PID.TID 0000.0001)  ploadbar=  1.01143837808572E+05
 cg2d: Sum(rhs),rhsMax =  -5.40153360387169E+01  1.37946097340248E+00
(PID.TID 0000.0001)  ploadbar=  1.01142980129414E+05
 cg2d: Sum(rhs),rhsMax =  -5.39680727183664E+01  1.38113352888366E+00
(PID.TID 0000.0001)  ploadbar=  1.01142122450255E+05
 cg2d: Sum(rhs),rhsMax =  -5.39214665629190E+01  1.38275008768625E+00
(PID.TID 0000.0001)  ploadbar=  1.01141264771097E+05
 cg2d: Sum(rhs),rhsMax =  -5.38860026227949E+01  1.38404214216506E+00
(PID.TID 0000.0001)  ploadbar=  1.01140407091938E+05
 cg2d: Sum(rhs),rhsMax =  -5.38747595925166E+01  1.38466648786076E+00
(PID.TID 0000.0001)  ploadbar=  1.01139549412780E+05
 cg2d: Sum(rhs),rhsMax =  -5.38952873743208E+01  1.38441848855325E+00
(PID.TID 0000.0001)  ploadbar=  1.01138691733622E+05
 cg2d: Sum(rhs),rhsMax =  -5.39163537494933E+01  1.38420814051264E+00
(PID.TID 0000.0001)  ploadbar=  1.01139273009373E+05
 cg2d: Sum(rhs),rhsMax =  -5.39616104786896E+01  1.38342637416405E+00
(PID.TID 0000.0001)  ploadbar=  1.01139854285125E+05
 cg2d: Sum(rhs),rhsMax =  -5.40146859572256E+01  1.38249213664548E+00
(PID.TID 0000.0001)  ploadbar=  1.01140435560877E+05
 cg2d: Sum(rhs),rhsMax =  -5.40713914493777E+01  1.38151166173049E+00
(PID.TID 0000.0001)  ploadbar=  1.01141016836629E+05
 cg2d: Sum(rhs),rhsMax =  -5.39929632496302E+01  1.38403385012312E+00
(PID.TID 0000.0001)  ploadbar=  1.01141598112380E+05
 cg2d: Sum(rhs),rhsMax =  -5.36247186912916E+01  1.39410209162417E+00
(PID.TID 0000.0001)  ploadbar=  1.01142179388132E+05
 cg2d: Sum(rhs),rhsMax =  -5.32928595937161E+01  1.40332602087442E+00
(PID.TID 0000.0001)  ploadbar=  1.01141632540320E+05
 cg2d: Sum(rhs),rhsMax =  -5.29977123211883E+01  1.41166142208528E+00
(PID.TID 0000.0001)  ploadbar=  1.01141085692508E+05
 cg2d: Sum(rhs),rhsMax =  -5.27363784061119E+01  1.41915284931836E+00
(PID.TID 0000.0001)  ploadbar=  1.01140538844696E+05
 cg2d: Sum(rhs),rhsMax =  -5.25077764420418E+01  1.42580482088540E+00
(PID.TID 0000.0001)  ploadbar=  1.01139991996884E+05
 cg2d: Sum(rhs),rhsMax =  -5.23182238109391E+01  1.43142158921825E+00
(PID.TID 0000.0001)  ploadbar=  1.01139445149072E+05
 cg2d: Sum(rhs),rhsMax =  -5.21764287706955E+01  1.43574141717086E+00
(PID.TID 0000.0001)  ploadbar=  1.01138898301260E+05
 cg2d: Sum(rhs),rhsMax =  -5.20340887716216E+01  1.44012051686427E+00
(PID.TID 0000.0001)  ploadbar=  1.01137338028573E+05
 cg2d: Sum(rhs),rhsMax =  -5.19378740538314E+01  1.44325738013665E+00
(PID.TID 0000.0001)  ploadbar=  1.01135777755886E+05
 cg2d: Sum(rhs),rhsMax =  -5.18920098487869E+01  1.44501823875306E+00
(PID.TID 0000.0001)  ploadbar=  1.01134217483198E+05
 cg2d: Sum(rhs),rhsMax =  -5.18759884597623E+01  1.44596588894229E+00
(PID.TID 0000.0001)  ploadbar=  1.01132657210511E+05
 cg2d: Sum(rhs),rhsMax =  -5.19005755488950E+01  1.44580181788309E+00
(PID.TID 0000.0001)  ploadbar=  1.01131096937824E+05
 cg2d: Sum(rhs),rhsMax =  -5.19712825505485E+01  1.44437425552051E+00
(PID.TID 0000.0001)  ploadbar=  1.01129536665136E+05
 cg2d: Sum(rhs),rhsMax =  -5.21083694219270E+01  1.44106084011831E+00
(PID.TID 0000.0001)  ploadbar=  1.01128523156498E+05
 cg2d: Sum(rhs),rhsMax =  -5.22587521263435E+01  1.43734339413251E+00
(PID.TID 0000.0001)  ploadbar=  1.01127509647859E+05
 cg2d: Sum(rhs),rhsMax =  -5.24415222143367E+01  1.43270786811712E+00
(PID.TID 0000.0001)  ploadbar=  1.01126496139221E+05
 cg2d: Sum(rhs),rhsMax =  -5.26348594081988E+01  1.42776342435925E+00
(PID.TID 0000.0001)  ploadbar=  1.01125482630582E+05
 cg2d: Sum(rhs),rhsMax =  -5.28440766638132E+01  1.42236758227258E+00
(PID.TID 0000.0001)  ploadbar=  1.01124469121943E+05
 cg2d: Sum(rhs),rhsMax =  -5.30640945198188E+01  1.41665888938577E+00
(PID.TID 0000.0001)  ploadbar=  1.01123455613305E+05
 cg2d: Sum(rhs),rhsMax =  -5.33526778974206E+01  1.40923711638794E+00
(PID.TID 0000.0001)  ploadbar=  1.01123031552206E+05
 cg2d: Sum(rhs),rhsMax =  -5.36528588497578E+01  1.40164342511344E+00
(PID.TID 0000.0001)  ploadbar=  1.01122607491107E+05
 cg2d: Sum(rhs),rhsMax =  -5.39544958343957E+01  1.39414834314358E+00
(PID.TID 0000.0001)  ploadbar=  1.01122183430009E+05
 cg2d: Sum(rhs),rhsMax =  -5.42461198574483E+01  1.38704533458793E+00
(PID.TID 0000.0001)  ploadbar=  1.01121759368910E+05
 cg2d: Sum(rhs),rhsMax =  -5.44355006109363E+01  1.38266268898416E+00
(PID.TID 0000.0001)  ploadbar=  1.01121335307812E+05
 cg2d: Sum(rhs),rhsMax =  -5.45083368505500E+01  1.38130741185349E+00
(PID.TID 0000.0001)  ploadbar=  1.01120911246713E+05
 cg2d: Sum(rhs),rhsMax =  -5.45906871525761E+01  1.37972875313046E+00
(PID.TID 0000.0001)  ploadbar=  1.01120006456304E+05
 cg2d: Sum(rhs),rhsMax =  -5.46659856556213E+01  1.37834149624368E+00
(PID.TID 0000.0001)  ploadbar=  1.01119101665894E+05
 cg2d: Sum(rhs),rhsMax =  -5.47409552946094E+01  1.37697396130653E+00
(PID.TID 0000.0001)  ploadbar=  1.01118196875485E+05
 cg2d: Sum(rhs),rhsMax =  -5.48118690123390E+01  1.37571862984653E+00
(PID.TID 0000.0001)  ploadbar=  1.01117292085075E+05
 cg2d: Sum(rhs),rhsMax =  -5.48738272877123E+01  1.37469827249234E+00
(PID.TID 0000.0001)  ploadbar=  1.01116387294666E+05
 cg2d: Sum(rhs),rhsMax =  -5.49272260578424E+01  1.37390597189469E+00
(PID.TID 0000.0001)  ploadbar=  1.01115482504256E+05
 cg2d: Sum(rhs),rhsMax =  -5.49163638948179E+01  1.37473427983292E+00
(PID.TID 0000.0001)  ploadbar=  1.01115349068450E+05
 cg2d: Sum(rhs),rhsMax =  -5.49009743427974E+01  1.37568473355637E+00
(PID.TID 0000.0001)  ploadbar=  1.01115215632643E+05
 cg2d: Sum(rhs),rhsMax =  -5.48500725150419E+01  1.37753402744705E+00
(PID.TID 0000.0001)  ploadbar=  1.01115082196837E+05
 cg2d: Sum(rhs),rhsMax =  -5.48066664724587E+01  1.37920434447206E+00
(PID.TID 0000.0001)  ploadbar=  1.01114948761030E+05
 cg2d: Sum(rhs),rhsMax =  -5.47659446902473E+01  1.38081230451420E+00
(PID.TID 0000.0001)  ploadbar=  1.01114815325224E+05
 cg2d: Sum(rhs),rhsMax =  -5.47277262835120E+01  1.38236409958177E+00
(PID.TID 0000.0001)  ploadbar=  1.01114681889417E+05
 cg2d: Sum(rhs),rhsMax =  -5.47279102252000E+01  1.38288110621024E+00
(PID.TID 0000.0001)  ploadbar=  1.01115414858209E+05
 cg2d: Sum(rhs),rhsMax =  -5.47254994843763E+01  1.38339226289716E+00
(PID.TID 0000.0001)  ploadbar=  1.01116147827001E+05
 cg2d: Sum(rhs),rhsMax =  -5.47180820494583E+01  1.38395735593477E+00
(PID.TID 0000.0001)  ploadbar=  1.01116880795793E+05
 cg2d: Sum(rhs),rhsMax =  -5.47106780926245E+01  1.38444982799539E+00
(PID.TID 0000.0001)  ploadbar=  1.01117613764585E+05
 cg2d: Sum(rhs),rhsMax =  -5.46982065322876E+01  1.38499498774193E+00
(PID.TID 0000.0001)  ploadbar=  1.01118346733377E+05
 cg2d: Sum(rhs),rhsMax =  -5.46801630119312E+01  1.38559778847905E+00
(PID.TID 0000.0001)  ploadbar=  1.01119079702169E+05
 cg2d: Sum(rhs),rhsMax =  -5.46817569656480E+01  1.38578846243058E+00
(PID.TID 0000.0001)  ploadbar=  1.01121456037074E+05
 cg2d: Sum(rhs),rhsMax =  -5.46910754046043E+01  1.38586635607475E+00
(PID.TID 0000.0001)  ploadbar=  1.01123832371979E+05
 cg2d: Sum(rhs),rhsMax =  -5.47090941554814E+01  1.38580624492805E+00
(PID.TID 0000.0001)  ploadbar=  1.01126208706885E+05
 cg2d: Sum(rhs),rhsMax =  -5.47357852252580E+01  1.38560750474157E+00
(PID.TID 0000.0001)  ploadbar=  1.01128585041790E+05
 cg2d: Sum(rhs),rhsMax =  -5.47678317885710E+01  1.38535429418992E+00
(PID.TID 0000.0001)  ploadbar=  1.01130961376695E+05
 cg2d: Sum(rhs),rhsMax =  -5.48026492011024E+01  1.38511134611919E+00
(PID.TID 0000.0001)  ploadbar=  1.01133337711600E+05
 cg2d: Sum(rhs),rhsMax =  -5.48505202870479E+01  1.38453323156611E+00
(PID.TID 0000.0001)  ploadbar=  1.01136020827045E+05
 cg2d: Sum(rhs),rhsMax =  -5.48932834261463E+01  1.38407276226004E+00
(PID.TID 0000.0001)  ploadbar=  1.01138703942489E+05
 cg2d: Sum(rhs),rhsMax =  -5.49276592624325E+01  1.38381029429767E+00
(PID.TID 0000.0001)  ploadbar=  1.01141387057933E+05
 cg2d: Sum(rhs),rhsMax =  -5.49620729011164E+01  1.38353542578169E+00
(PID.TID 0000.0001)  ploadbar=  1.01144070173378E+05
 cg2d: Sum(rhs),rhsMax =  -5.50049218674628E+01  1.38304367188833E+00
(PID.TID 0000.0001)  ploadbar=  1.01146753288822E+05
 cg2d: Sum(rhs),rhsMax =  -5.50596145826729E+01  1.38226198890369E+00
(PID.TID 0000.0001)  ploadbar=  1.01149436404267E+05
 cg2d: Sum(rhs),rhsMax =  -5.51193492224758E+01  1.38136325257091E+00
(PID.TID 0000.0001)  ploadbar=  1.01151700027060E+05
 cg2d: Sum(rhs),rhsMax =  -5.51856642925802E+01  1.38029751810867E+00
(PID.TID 0000.0001)  ploadbar=  1.01153963649853E+05
 cg2d: Sum(rhs),rhsMax =  -5.52572112077989E+01  1.37909720403119E+00
(PID.TID 0000.0001)  ploadbar=  1.01156227272646E+05
 cg2d: Sum(rhs),rhsMax =  -5.53372392508096E+01  1.37768224126302E+00
(PID.TID 0000.0001)  ploadbar=  1.01158490895440E+05
 cg2d: Sum(rhs),rhsMax =  -5.54243341859517E+01  1.37608870305176E+00
(PID.TID 0000.0001)  ploadbar=  1.01160754518233E+05
 cg2d: Sum(rhs),rhsMax =  -5.55155852050306E+01  1.37439120045260E+00
(PID.TID 0000.0001)  ploadbar=  1.01163018141026E+05
 cg2d: Sum(rhs),rhsMax =  -5.56313877558606E+01  1.37203320271702E+00
(PID.TID 0000.0001)  ploadbar=  1.01164271766714E+05
 cg2d: Sum(rhs),rhsMax =  -5.57546312462083E+01  1.36943944210323E+00
(PID.TID 0000.0001)  ploadbar=  1.01165525392401E+05
 cg2d: Sum(rhs),rhsMax =  -5.58646360306201E+01  1.36711938462107E+00
(PID.TID 0000.0001)  ploadbar=  1.01166779018089E+05
 cg2d: Sum(rhs),rhsMax =  -5.59562394197274E+01  1.36519552407557E+00
(PID.TID 0000.0001)  ploadbar=  1.01168032643776E+05
 cg2d: Sum(rhs),rhsMax =  -5.60288743434397E+01  1.36367214701638E+00
(PID.TID 0000.0001)  ploadbar=  1.01169286269464E+05
 cg2d: Sum(rhs),rhsMax =  -5.60799373302151E+01  1.36260363096518E+00
(PID.TID 0000.0001)  ploadbar=  1.01170539895151E+05
 cg2d: Sum(rhs),rhsMax =  -5.62162121254944E+01  1.35952363195667E+00
(PID.TID 0000.0001)  ploadbar=  1.01170886560771E+05
 cg2d: Sum(rhs),rhsMax =  -5.63770463593370E+01  1.35591701299586E+00
(PID.TID 0000.0001)  ploadbar=  1.01171233226391E+05
 cg2d: Sum(rhs),rhsMax =  -5.65530859171230E+01  1.35201601358777E+00
(PID.TID 0000.0001)  ploadbar=  1.01171579892010E+05
 cg2d: Sum(rhs),rhsMax =  -5.67326467943596E+01  1.34810214105512E+00
(PID.TID 0000.0001)  ploadbar=  1.01171926557630E+05
 cg2d: Sum(rhs),rhsMax =  -5.69153638859554E+01  1.34418343055694E+00
(PID.TID 0000.0001)  ploadbar=  1.01172273223250E+05
 cg2d: Sum(rhs),rhsMax =  -5.71182998739456E+01  1.33985769100990E+00
(PID.TID 0000.0001)  ploadbar=  1.01172619888869E+05
 cg2d: Sum(rhs),rhsMax =  -5.73648128582814E+01  1.33452137276898E+00
(PID.TID 0000.0001)  ploadbar=  1.01172951574043E+05
 cg2d: Sum(rhs),rhsMax =  -5.76847438333020E+01  1.32750831859212E+00
(PID.TID 0000.0001)  ploadbar=  1.01173283259217E+05
 cg2d: Sum(rhs),rhsMax =  -5.80531587475070E+01  1.31943944509967E+00
(PID.TID 0000.0001)  ploadbar=  1.01173614944391E+05
 cg2d: Sum(rhs),rhsMax =  -5.84709644801319E+01  1.31033608387356E+00
(PID.TID 0000.0001)  ploadbar=  1.01173946629564E+05
 cg2d: Sum(rhs),rhsMax =  -5.89578548114800E+01  1.29981037001728E+00
(PID.TID 0000.0001)  ploadbar=  1.01174278314738E+05
 cg2d: Sum(rhs),rhsMax =  -5.95437525299550E+01  1.28728810617807E+00
(PID.TID 0000.0001)  ploadbar=  1.01174609999912E+05
 cg2d: Sum(rhs),rhsMax =  -6.01593259427629E+01  1.27443751349292E+00
(PID.TID 0000.0001)  ploadbar=  1.01173873106345E+05
 cg2d: Sum(rhs),rhsMax =  -6.17374183270376E+01  1.24222159639607E+00
(PID.TID 0000.0001)  ploadbar=  1.01173136212778E+05
 cg2d: Sum(rhs),rhsMax =  -6.35520281727599E+01  1.20714750596137E+00
(PID.TID 0000.0001)  ploadbar=  1.01172399319211E+05
 cg2d: Sum(rhs),rhsMax =  -6.38484406152203E+01  1.20198394059266E+00
(PID.TID 0000.0001)  ploadbar=  1.01171662425644E+05
 cg2d: Sum(rhs),rhsMax =  -6.36941406137749E+01  1.20538324513154E+00
(PID.TID 0000.0001)  ploadbar=  1.01170925532077E+05
 cg2d: Sum(rhs),rhsMax =  -6.35500984042344E+01  1.20865077305644E+00
(PID.TID 0000.0001)  ploadbar=  1.01170188638510E+05
 cg2d: Sum(rhs),rhsMax =  -6.34097486738548E+01  1.21179539624308E+00
(PID.TID 0000.0001)  ploadbar=  1.01169965996292E+05
 cg2d: Sum(rhs),rhsMax =  -6.33184184854262E+01  1.21393892798975E+00
(PID.TID 0000.0001)  ploadbar=  1.01169743354074E+05
 cg2d: Sum(rhs),rhsMax =  -6.32597798476579E+01  1.21538518072321E+00
(PID.TID 0000.0001)  ploadbar=  1.01169520711857E+05
 cg2d: Sum(rhs),rhsMax =  -6.32321223551565E+01  1.21616564472251E+00
(PID.TID 0000.0001)  ploadbar=  1.01169298069639E+05
 cg2d: Sum(rhs),rhsMax =  -6.32186764677731E+01  1.21659490865162E+00
(PID.TID 0000.0001)  ploadbar=  1.01169075427421E+05
 cg2d: Sum(rhs),rhsMax =  -6.31994502887232E+01  1.21705272714810E+00
(PID.TID 0000.0001)  ploadbar=  1.01168852785203E+05
 cg2d: Sum(rhs),rhsMax =  -6.31437832783527E+01  1.21825013640415E+00
(PID.TID 0000.0001)  ploadbar=  1.01169387030025E+05
 cg2d: Sum(rhs),rhsMax =  -6.30090948578891E+01  1.22101463642778E+00
(PID.TID 0000.0001)  ploadbar=  1.01169921274847E+05
 cg2d: Sum(rhs),rhsMax =  -6.27887155564832E+01  1.22549664565943E+00
(PID.TID 0000.0001)  ploadbar=  1.01170455519669E+05
 cg2d: Sum(rhs),rhsMax =  -6.24846269156066E+01  1.23169306036778E+00
(PID.TID 0000.0001)  ploadbar=  1.01170989764491E+05
 cg2d: Sum(rhs),rhsMax =  -6.21277966962289E+01  1.23903486831453E+00
(PID.TID 0000.0001)  ploadbar=  1.01171524009313E+05
 cg2d: Sum(rhs),rhsMax =  -6.17938501345981E+01  1.24603554811634E+00
(PID.TID 0000.0001)  ploadbar=  1.01172058254135E+05
 cg2d: Sum(rhs),rhsMax =  -6.15493333084134E+01  1.25127559304486E+00
(PID.TID 0000.0001)  ploadbar=  1.01171796891590E+05
 cg2d: Sum(rhs),rhsMax =  -6.13467980149921E+01  1.25567973851347E+00
(PID.TID 0000.0001)  ploadbar=  1.01171535529044E+05
 cg2d: Sum(rhs),rhsMax =  -6.12135954050666E+01  1.25867090887847E+00
(PID.TID 0000.0001)  ploadbar=  1.01171274166498E+05
 cg2d: Sum(rhs),rhsMax =  -6.11759274257564E+01  1.25969138452060E+00
(PID.TID 0000.0001)  ploadbar=  1.01171012803952E+05
 cg2d: Sum(rhs),rhsMax =  -6.12397847997042E+01  1.25861223386943E+00
(PID.TID 0000.0001)  ploadbar=  1.01170751441406E+05
 cg2d: Sum(rhs),rhsMax =  -6.14054705833007E+01  1.25544771797675E+00
(PID.TID 0000.0001)  ploadbar=  1.01170490078860E+05
 cg2d: Sum(rhs),rhsMax =  -6.16951134014841E+01  1.24982776203394E+00
(PID.TID 0000.0001)  ploadbar=  1.01170199969621E+05
 cg2d: Sum(rhs),rhsMax =  -6.20464378263740E+01  1.24305898447788E+00
(PID.TID 0000.0001)  ploadbar=  1.01169909860381E+05
 cg2d: Sum(rhs),rhsMax =  -6.24624212400811E+01  1.23512268695864E+00
(PID.TID 0000.0001)  ploadbar=  1.01169619751141E+05
 cg2d: Sum(rhs),rhsMax =  -6.29227073229674E+01  1.22646638059358E+00
(PID.TID 0000.0001)  ploadbar=  1.01169329641902E+05
 cg2d: Sum(rhs),rhsMax =  -6.34264102226631E+01  1.21714228367178E+00
(PID.TID 0000.0001)  ploadbar=  1.01169039532662E+05
 cg2d: Sum(rhs),rhsMax =  -6.39579299579591E+01  1.20748138127846E+00
(PID.TID 0000.0001)  ploadbar=  1.01168749423423E+05
 cg2d: Sum(rhs),rhsMax =  -6.45920210686345E+01  1.19603975038608E+00
(PID.TID 0000.0001)  ploadbar=  1.01168403221914E+05
 cg2d: Sum(rhs),rhsMax =  -6.52037439468513E+01  1.18518533447028E+00
(PID.TID 0000.0001)  ploadbar=  1.01168057020405E+05
 cg2d: Sum(rhs),rhsMax =  -6.57644095849434E+01  1.17540547636649E+00
(PID.TID 0000.0001)  ploadbar=  1.01167710818896E+05
 cg2d: Sum(rhs),rhsMax =  -6.62355310424890E+01  1.16733304843878E+00
(PID.TID 0000.0001)  ploadbar=  1.01167364617388E+05
 cg2d: Sum(rhs),rhsMax =  -6.65883056310035E+01  1.16140197608080E+00
(PID.TID 0000.0001)  ploadbar=  1.01167018415879E+05
 cg2d: Sum(rhs),rhsMax =  -6.68003046637291E+01  1.15793199356849E+00
(PID.TID 0000.0001)  ploadbar=  1.01166672214370E+05
 cg2d: Sum(rhs),rhsMax =  -6.68822091706006E+01  1.15678249137110E+00
(PID.TID 0000.0001)  ploadbar=  1.01166412029816E+05
 cg2d: Sum(rhs),rhsMax =  -6.69311515415776E+01  1.15625556779227E+00
(PID.TID 0000.0001)  ploadbar=  1.01166151845261E+05
 cg2d: Sum(rhs),rhsMax =  -6.70165537229237E+01  1.15515243040237E+00
(PID.TID 0000.0001)  ploadbar=  1.01165891660706E+05
 cg2d: Sum(rhs),rhsMax =  -6.72954432531811E+01  1.15078488746540E+00
(PID.TID 0000.0001)  ploadbar=  1.01165631476152E+05
 cg2d: Sum(rhs),rhsMax =  -6.79486702966500E+01  1.14018803669483E+00
(PID.TID 0000.0001)  ploadbar=  1.01165371291597E+05
 cg2d: Sum(rhs),rhsMax =  -6.86539690837747E+01  1.12898563835702E+00
(PID.TID 0000.0001)  ploadbar=  1.01165111107043E+05
 cg2d: Sum(rhs),rhsMax =  -6.90644879744854E+01  1.12278815639496E+00
(PID.TID 0000.0001)  ploadbar=  1.01165252991953E+05
 cg2d: Sum(rhs),rhsMax =  -6.89994132480659E+01  1.12436310695280E+00
(PID.TID 0000.0001)  ploadbar=  1.01165394876864E+05
 cg2d: Sum(rhs),rhsMax =  -6.82387702398314E+01  1.13742180563136E+00
(PID.TID 0000.0001)  ploadbar=  1.01165536761774E+05
 cg2d: Sum(rhs),rhsMax =  -6.70029364140026E+01  1.15894328887231E+00
(PID.TID 0000.0001)  ploadbar=  1.01165678646685E+05
 cg2d: Sum(rhs),rhsMax =  -6.54651076552773E+01  1.18673376279983E+00
(PID.TID 0000.0001)  ploadbar=  1.01165820531595E+05
 cg2d: Sum(rhs),rhsMax =  -6.37787486368878E+01  1.21870445579271E+00
(PID.TID 0000.0001)  ploadbar=  1.01165962416505E+05
 cg2d: Sum(rhs),rhsMax =  -6.20348077555634E+01  1.25359148319963E+00
(PID.TID 0000.0001)  ploadbar=  1.01165139519651E+05
 cg2d: Sum(rhs),rhsMax =  -6.04552852107274E+01  1.28699929970201E+00
(PID.TID 0000.0001)  ploadbar=  1.01164316622797E+05
 cg2d: Sum(rhs),rhsMax =  -5.90887932098080E+01  1.31744487302971E+00
(PID.TID 0000.0001)  ploadbar=  1.01163493725942E+05
 cg2d: Sum(rhs),rhsMax =  -5.79856803787923E+01  1.34321659419460E+00
(PID.TID 0000.0001)  ploadbar=  1.01162670829088E+05
 cg2d: Sum(rhs),rhsMax =  -5.72208610751520E+01  1.36190125156648E+00
(PID.TID 0000.0001)  ploadbar=  1.01161847932233E+05
 cg2d: Sum(rhs),rhsMax =  -5.68340228920105E+01  1.37192345946830E+00
(PID.TID 0000.0001)  ploadbar=  1.01161025035379E+05
 cg2d: Sum(rhs),rhsMax =  -5.65564642656182E+01  1.37931661879841E+00
(PID.TID 0000.0001)  ploadbar=  1.01159815421633E+05
 cg2d: Sum(rhs),rhsMax =  -5.66198610024158E+01  1.37833386549239E+00
(PID.TID 0000.0001)  ploadbar=  1.01158605807888E+05
 cg2d: Sum(rhs),rhsMax =  -5.70566166588495E+01  1.36824619855651E+00
(PID.TID 0000.0001)  ploadbar=  1.01157396194143E+05
 cg2d: Sum(rhs),rhsMax =  -5.77868335054008E+01  1.35132511635376E+00
(PID.TID 0000.0001)  ploadbar=  1.01156186580398E+05
 cg2d: Sum(rhs),rhsMax =  -5.87725527386807E+01  1.32893883271758E+00
(PID.TID 0000.0001)  ploadbar=  1.01154976966653E+05
 cg2d: Sum(rhs),rhsMax =  -5.99995440861332E+01  1.30194776144077E+00
(PID.TID 0000.0001)  ploadbar=  1.01153767352908E+05
 cg2d: Sum(rhs),rhsMax =  -6.12907235738867E+01  1.27478497496859E+00
(PID.TID 0000.0001)  ploadbar=  1.01152669937715E+05
 cg2d: Sum(rhs),rhsMax =  -6.22618949484235E+01  1.25524004842581E+00
(PID.TID 0000.0001)  ploadbar=  1.01151572522522E+05
 cg2d: Sum(rhs),rhsMax =  -6.28757455577231E+01  1.24339894372020E+00
(PID.TID 0000.0001)  ploadbar=  1.01150475107329E+05
 cg2d: Sum(rhs),rhsMax =  -6.32042347102263E+01  1.23742817942974E+00
(PID.TID 0000.0001)  ploadbar=  1.01149377692136E+05
 cg2d: Sum(rhs),rhsMax =  -6.34017587820254E+01  1.23414511763246E+00
(PID.TID 0000.0001)  ploadbar=  1.01148280276944E+05
 cg2d: Sum(rhs),rhsMax =  -6.35889590098454E+01  1.23116318699688E+00
(PID.TID 0000.0001)  ploadbar=  1.01147182861751E+05
 cg2d: Sum(rhs),rhsMax =  -6.39918158822268E+01  1.22405166435386E+00
(PID.TID 0000.0001)  ploadbar=  1.01146502013109E+05
 cg2d: Sum(rhs),rhsMax =  -6.44605009886877E+01  1.21577774757014E+00
(PID.TID 0000.0001)  ploadbar=  1.01145821164466E+05
 cg2d: Sum(rhs),rhsMax =  -6.49456052333204E+01  1.20731085726484E+00
(PID.TID 0000.0001)  ploadbar=  1.01145140315824E+05
 cg2d: Sum(rhs),rhsMax =  -6.54076706949040E+01  1.19938687842168E+00
(PID.TID 0000.0001)  ploadbar=  1.01144459467182E+05
 cg2d: Sum(rhs),rhsMax =  -6.56285275417846E+01  1.19595675810932E+00
(PID.TID 0000.0001)  ploadbar=  1.01143778618539E+05
 cg2d: Sum(rhs),rhsMax =  -6.54801932132404E+01  1.19928100549941E+00
(PID.TID 0000.0001)  ploadbar=  1.01143097769897E+05
 cg2d: Sum(rhs),rhsMax =  -6.53965449005388E+01  1.20143101736666E+00
(PID.TID 0000.0001)  ploadbar=  1.01142112627958E+05
 cg2d: Sum(rhs),rhsMax =  -6.53730068582066E+01  1.20246974167410E+00
(PID.TID 0000.0001)  ploadbar=  1.01141127486018E+05
 cg2d: Sum(rhs),rhsMax =  -6.54142182837895E+01  1.20230738034271E+00
(PID.TID 0000.0001)  ploadbar=  1.01140142344079E+05
 cg2d: Sum(rhs),rhsMax =  -6.55125874699192E+01  1.20108715381236E+00
(PID.TID 0000.0001)  ploadbar=  1.01139157202140E+05
 cg2d: Sum(rhs),rhsMax =  -6.56644495334588E+01  1.19888572363847E+00
(PID.TID 0000.0001)  ploadbar=  1.01138172060200E+05
 cg2d: Sum(rhs),rhsMax =  -6.58626913009030E+01  1.19584544102567E+00
(PID.TID 0000.0001)  ploadbar=  1.01137186918261E+05
 cg2d: Sum(rhs),rhsMax =  -6.60629592990256E+01  1.19271390060678E+00
(PID.TID 0000.0001)  ploadbar=  1.01135858037308E+05
 cg2d: Sum(rhs),rhsMax =  -6.62452353171573E+01  1.18984801475681E+00
(PID.TID 0000.0001)  ploadbar=  1.01134529156354E+05
 cg2d: Sum(rhs),rhsMax =  -6.62342747971516E+01  1.19038590454397E+00
(PID.TID 0000.0001)  ploadbar=  1.01133200275401E+05
 cg2d: Sum(rhs),rhsMax =  -6.61671117461441E+01  1.19186441855116E+00
(PID.TID 0000.0001)  ploadbar=  1.01131871394447E+05
 cg2d: Sum(rhs),rhsMax =  -6.60749706985168E+01  1.19372921566373E+00
(PID.TID 0000.0001)  ploadbar=  1.01130542513494E+05
 cg2d: Sum(rhs),rhsMax =  -6.59618227862239E+01  1.19590921204339E+00
(PID.TID 0000.0001)  ploadbar=  1.01129213632540E+05
 cg2d: Sum(rhs),rhsMax =  -6.57839537280087E+01  1.19932328597643E+00
(PID.TID 0000.0001)  ploadbar=  1.01129978402546E+05
 cg2d: Sum(rhs),rhsMax =  -6.55948840983004E+01  1.20300922622136E+00
(PID.TID 0000.0001)  ploadbar=  1.01130743172552E+05
 cg2d: Sum(rhs),rhsMax =  -6.53674571902147E+01  1.20747356709706E+00
(PID.TID 0000.0001)  ploadbar=  1.01131507942559E+05
 cg2d: Sum(rhs),rhsMax =  -6.51234342020756E+01  1.21232805359312E+00
(PID.TID 0000.0001)  ploadbar=  1.01132272712565E+05
 cg2d: Sum(rhs),rhsMax =  -6.49198521652166E+01  1.21651108439110E+00
(PID.TID 0000.0001)  ploadbar=  1.01133037482571E+05
 cg2d: Sum(rhs),rhsMax =  -6.47635146365586E+01  1.21987889471401E+00
(PID.TID 0000.0001)  ploadbar=  1.01133802252577E+05
 cg2d: Sum(rhs),rhsMax =  -6.46144321083340E+01  1.22311236459167E+00
(PID.TID 0000.0001)  ploadbar=  1.01132484449642E+05
 cg2d: Sum(rhs),rhsMax =  -6.44707488054501E+01  1.22624459933249E+00
(PID.TID 0000.0001)  ploadbar=  1.01131166646707E+05
 cg2d: Sum(rhs),rhsMax =  -6.43670923218388E+01  1.22861887579380E+00
(PID.TID 0000.0001)  ploadbar=  1.01129848843772E+05
 cg2d: Sum(rhs),rhsMax =  -6.42956121314589E+01  1.23037948929729E+00
(PID.TID 0000.0001)  ploadbar=  1.01128531040838E+05
 cg2d: Sum(rhs),rhsMax =  -6.42527128810830E+01  1.23159717319008E+00
(PID.TID 0000.0001)  ploadbar=  1.01127213237903E+05
 cg2d: Sum(rhs),rhsMax =  -6.42076846730146E+01  1.23286415778660E+00
(PID.TID 0000.0001)  ploadbar=  1.01125895434968E+05
 cg2d: Sum(rhs),rhsMax =  -6.40797956359038E+01  1.23572861471598E+00
(PID.TID 0000.0001)  ploadbar=  1.01124829209727E+05
 cg2d: Sum(rhs),rhsMax =  -6.39526407502405E+01  1.23858112993238E+00
(PID.TID 0000.0001)  ploadbar=  1.01123762984485E+05
 cg2d: Sum(rhs),rhsMax =  -6.38286095808748E+01  1.24137298056202E+00
(PID.TID 0000.0001)  ploadbar=  1.01122696759244E+05
 cg2d: Sum(rhs),rhsMax =  -6.37113816915904E+01  1.24402890200457E+00
(PID.TID 0000.0001)  ploadbar=  1.01121630534003E+05
 cg2d: Sum(rhs),rhsMax =  -6.36026156993617E+01  1.24651365083383E+00
(PID.TID 0000.0001)  ploadbar=  1.01120564308762E+05
 cg2d: Sum(rhs),rhsMax =  -6.35026525444829E+01  1.24881742798438E+00
(PID.TID 0000.0001)  ploadbar=  1.01119498083521E+05
 cg2d: Sum(rhs),rhsMax =  -6.34117933764685E+01  1.25090880590154E+00
(PID.TID 0000.0001)  ploadbar=  1.01118239131688E+05
 cg2d: Sum(rhs),rhsMax =  -6.33077398052119E+01  1.25322671352461E+00
(PID.TID 0000.0001)  ploadbar=  1.01116980179855E+05
 cg2d: Sum(rhs),rhsMax =  -6.31905502327762E+01  1.25577546576398E+00
(PID.TID 0000.0001)  ploadbar=  1.01115721228022E+05
 cg2d: Sum(rhs),rhsMax =  -6.30719847455643E+01  1.25832552611120E+00
(PID.TID 0000.0001)  ploadbar=  1.01114462276190E+05
 cg2d: Sum(rhs),rhsMax =  -6.29475898239791E+01  1.26096782308153E+00
(PID.TID 0000.0001)  ploadbar=  1.01113203324357E+05
 cg2d: Sum(rhs),rhsMax =  -6.28135018326157E+01  1.26377627622621E+00
(PID.TID 0000.0001)  ploadbar=  1.01111944372524E+05
 cg2d: Sum(rhs),rhsMax =  -6.26552928526319E+01  1.26713829237803E+00
(PID.TID 0000.0001)  ploadbar=  1.01111167582509E+05
 cg2d: Sum(rhs),rhsMax =  -6.24972926711362E+01  1.27056405834383E+00
(PID.TID 0000.0001)  ploadbar=  1.01110390792494E+05
 cg2d: Sum(rhs),rhsMax =  -6.23467239495549E+01  1.27390413513432E+00
(PID.TID 0000.0001)  ploadbar=  1.01109614002479E+05
 cg2d: Sum(rhs),rhsMax =  -6.22062761900838E+01  1.27710196407420E+00
(PID.TID 0000.0001)  ploadbar=  1.01108837212465E+05
 cg2d: Sum(rhs),rhsMax =  -6.20773079079285E+01  1.28012694157403E+00
(PID.TID 0000.0001)  ploadbar=  1.01108060422450E+05
 cg2d: Sum(rhs),rhsMax =  -6.19599954295359E+01  1.28297267164572E+00
(PID.TID 0000.0001)  ploadbar=  1.01107283632435E+05
 cg2d: Sum(rhs),rhsMax =  -6.18898153048133E+01  1.28483314012588E+00
(PID.TID 0000.0001)  ploadbar=  1.01106215628180E+05
 cg2d: Sum(rhs),rhsMax =  -6.18260568112661E+01  1.28654778242850E+00
(PID.TID 0000.0001)  ploadbar=  1.01105147623925E+05
 cg2d: Sum(rhs),rhsMax =  -6.17676761666711E+01  1.28813903007067E+00
(PID.TID 0000.0001)  ploadbar=  1.01104079619670E+05
 cg2d: Sum(rhs),rhsMax =  -6.17150780035699E+01  1.28960181422341E+00
(PID.TID 0000.0001)  ploadbar=  1.01103011615415E+05
 cg2d: Sum(rhs),rhsMax =  -6.16668088758471E+01  1.29097119671380E+00
(PID.TID 0000.0001)  ploadbar=  1.01101943611160E+05
 cg2d: Sum(rhs),rhsMax =  -6.16211289928203E+01  1.29228326097597E+00
(PID.TID 0000.0001)  ploadbar=  1.01100875606905E+05
 cg2d: Sum(rhs),rhsMax =  -6.15582508375257E+01  1.29398098699973E+00
(PID.TID 0000.0001)  ploadbar=  1.01101916688943E+05
 cg2d: Sum(rhs),rhsMax =  -6.14882957816708E+01  1.29584730084675E+00
(PID.TID 0000.0001)  ploadbar=  1.01102957770981E+05
 cg2d: Sum(rhs),rhsMax =  -6.14095598565129E+01  1.29792285419927E+00
(PID.TID 0000.0001)  ploadbar=  1.01103998853019E+05
 cg2d: Sum(rhs),rhsMax =  -6.13143940278093E+01  1.30037218738658E+00
(PID.TID 0000.0001)  ploadbar=  1.01105039935057E+05
 cg2d: Sum(rhs),rhsMax =  -6.11953837496095E+01  1.30335691629631E+00
(PID.TID 0000.0001)  ploadbar=  1.01106081017095E+05
 cg2d: Sum(rhs),rhsMax =  -6.10456727880681E+01  1.30703014346069E+00
(PID.TID 0000.0001)  ploadbar=  1.01107122099133E+05
 cg2d: Sum(rhs),rhsMax =  -6.08653400800856E+01  1.31131652995219E+00
(PID.TID 0000.0001)  ploadbar=  1.01107155440714E+05
 cg2d: Sum(rhs),rhsMax =  -6.06587261805464E+01  1.31612883577371E+00
(PID.TID 0000.0001)  ploadbar=  1.01107188782296E+05
 cg2d: Sum(rhs),rhsMax =  -6.04295849004266E+01  1.32139800779885E+00
(PID.TID 0000.0001)  ploadbar=  1.01107222123877E+05
 cg2d: Sum(rhs),rhsMax =  -6.01914233259327E+01  1.32684044496668E+00
(PID.TID 0000.0001)  ploadbar=  1.01107255465458E+05
 cg2d: Sum(rhs),rhsMax =  -5.99624000719131E+01  1.33206142319344E+00
(PID.TID 0000.0001)  ploadbar=  1.01107288807040E+05
 cg2d: Sum(rhs),rhsMax =  -5.97586430877663E+01  1.33669190242562E+00
(PID.TID 0000.0001)  ploadbar=  1.01107322148621E+05
 cg2d: Sum(rhs),rhsMax =  -5.95248011033262E+01  1.34208445943944E+00
(PID.TID 0000.0001)  ploadbar=  1.01106796604661E+05
 cg2d: Sum(rhs),rhsMax =  -5.93022011807751E+01  1.34731469910608E+00
(PID.TID 0000.0001)  ploadbar=  1.01106271060700E+05
 cg2d: Sum(rhs),rhsMax =  -5.90940102257327E+01  1.35230419592596E+00
(PID.TID 0000.0001)  ploadbar=  1.01105745516740E+05
 cg2d: Sum(rhs),rhsMax =  -5.89018409747776E+01  1.35701091941682E+00
(PID.TID 0000.0001)  ploadbar=  1.01105219972780E+05
 cg2d: Sum(rhs),rhsMax =  -5.87236997982215E+01  1.36147804251019E+00
(PID.TID 0000.0001)  ploadbar=  1.01104694428819E+05
 cg2d: Sum(rhs),rhsMax =  -5.86270548356658E+01  1.36413149781659E+00
(PID.TID 0000.0001)  ploadbar=  1.01104168884859E+05
 cg2d: Sum(rhs),rhsMax =  -5.92415572386328E+01  1.35037913986373E+00
(PID.TID 0000.0001)  ploadbar=  1.01104900793006E+05
 cg2d: Sum(rhs),rhsMax =  -5.99187781882734E+01  1.33550505234180E+00
(PID.TID 0000.0001)  ploadbar=  1.01105632701153E+05
 cg2d: Sum(rhs),rhsMax =  -6.06572615349518E+01  1.31962854592203E+00
(PID.TID 0000.0001)  ploadbar=  1.01106364609300E+05
 cg2d: Sum(rhs),rhsMax =  -6.14607639530640E+01  1.30275910961122E+00
(PID.TID 0000.0001)  ploadbar=  1.01107096517447E+05
 cg2d: Sum(rhs),rhsMax =  -6.23267673708475E+01  1.28504565316265E+00
(PID.TID 0000.0001)  ploadbar=  1.01107828425594E+05
 cg2d: Sum(rhs),rhsMax =  -6.32607001498456E+01  1.26646804574346E+00
(PID.TID 0000.0001)  ploadbar=  1.01108560333741E+05
 cg2d: Sum(rhs),rhsMax =  -6.42352717576134E+01  1.24767017784303E+00
(PID.TID 0000.0001)  ploadbar=  1.01109126972413E+05
 cg2d: Sum(rhs),rhsMax =  -6.52095898510063E+01  1.22946265919521E+00
(PID.TID 0000.0001)  ploadbar=  1.01109693611086E+05
 cg2d: Sum(rhs),rhsMax =  -6.61695585086806E+01  1.21208048361360E+00
(PID.TID 0000.0001)  ploadbar=  1.01110260249758E+05
 cg2d: Sum(rhs),rhsMax =  -6.71095341979364E+01  1.19558021091328E+00
(PID.TID 0000.0001)  ploadbar=  1.01110826888430E+05
 cg2d: Sum(rhs),rhsMax =  -6.80282508023306E+01  1.17993378981626E+00
(PID.TID 0000.0001)  ploadbar=  1.01111393527103E+05
 cg2d: Sum(rhs),rhsMax =  -6.89280098356165E+01  1.16505621008031E+00
(PID.TID 0000.0001)  ploadbar=  1.01111960165775E+05
 cg2d: Sum(rhs),rhsMax =  -6.98176431221388E+01  1.15068371959009E+00
(PID.TID 0000.0001)  ploadbar=  1.01113234911292E+05
 cg2d: Sum(rhs),rhsMax =  -7.03095970137401E+01  1.14305202038927E+00
(PID.TID 0000.0001)  ploadbar=  1.01114509656809E+05
 cg2d: Sum(rhs),rhsMax =  -6.99973519431132E+01  1.14852459797212E+00
(PID.TID 0000.0001)  ploadbar=  1.01115784402326E+05
 cg2d: Sum(rhs),rhsMax =  -6.96986831977966E+01  1.15377499688548E+00
(PID.TID 0000.0001)  ploadbar=  1.01117059147843E+05
 cg2d: Sum(rhs),rhsMax =  -6.94029725994403E+01  1.15897431687426E+00
(PID.TID 0000.0001)  ploadbar=  1.01118333893360E+05
 cg2d: Sum(rhs),rhsMax =  -6.91018109780203E+01  1.16425913831358E+00
(PID.TID 0000.0001)  ploadbar=  1.01119608638878E+05
 cg2d: Sum(rhs),rhsMax =  -6.88262086901200E+01  1.16918776554938E+00
(PID.TID 0000.0001)  ploadbar=  1.01120220236145E+05
 cg2d: Sum(rhs),rhsMax =  -6.85603585376496E+01  1.17401856442873E+00
(PID.TID 0000.0001)  ploadbar=  1.01120831833413E+05
 cg2d: Sum(rhs),rhsMax =  -6.82955637151112E+01  1.17889889397374E+00
(PID.TID 0000.0001)  ploadbar=  1.01121443430680E+05
 cg2d: Sum(rhs),rhsMax =  -6.80345206013544E+01  1.18378360680736E+00
(PID.TID 0000.0001)  ploadbar=  1.01122055027948E+05
 cg2d: Sum(rhs),rhsMax =  -6.77785560675337E+01  1.18864911419548E+00
(PID.TID 0000.0001)  ploadbar=  1.01122666625215E+05
 cg2d: Sum(rhs),rhsMax =  -6.75265822670350E+01  1.19351610722679E+00
(PID.TID 0000.0001)  ploadbar=  1.01123278222483E+05
 cg2d: Sum(rhs),rhsMax =  -6.72588223708043E+01  1.19868658218754E+00
(PID.TID 0000.0001)  ploadbar=  1.01124307438285E+05
 cg2d: Sum(rhs),rhsMax =  -6.70041917671180E+01  1.20364866431867E+00
(PID.TID 0000.0001)  ploadbar=  1.01125336654088E+05
 cg2d: Sum(rhs),rhsMax =  -6.67915533475766E+01  1.20787840227132E+00
(PID.TID 0000.0001)  ploadbar=  1.01126365869891E+05
 cg2d: Sum(rhs),rhsMax =  -6.66235873287600E+01  1.21131009850654E+00
(PID.TID 0000.0001)  ploadbar=  1.01127395085693E+05
 cg2d: Sum(rhs),rhsMax =  -6.65020965869602E+01  1.21390351448074E+00
(PID.TID 0000.0001)  ploadbar=  1.01128424301496E+05
 cg2d: Sum(rhs),rhsMax =  -6.64257741387782E+01  1.21566904674856E+00
(PID.TID 0000.0001)  ploadbar=  1.01129453517299E+05
 cg2d: Sum(rhs),rhsMax =  -6.65159534471506E+01  1.21441156799433E+00
(PID.TID 0000.0001)  ploadbar=  1.01129701330261E+05
 cg2d: Sum(rhs),rhsMax =  -6.65486703798542E+01  1.21422206921386E+00
(PID.TID 0000.0001)  ploadbar=  1.01129949143223E+05
 cg2d: Sum(rhs),rhsMax =  -6.65390538164848E+01  1.21482314718358E+00
(PID.TID 0000.0001)  ploadbar=  1.01130196956185E+05
 cg2d: Sum(rhs),rhsMax =  -6.65016766202058E+01  1.21595030196610E+00
(PID.TID 0000.0001)  ploadbar=  1.01130444769147E+05
 cg2d: Sum(rhs),rhsMax =  -6.64526451084852E+01  1.21731537480328E+00
(PID.TID 0000.0001)  ploadbar=  1.01130692582110E+05
 cg2d: Sum(rhs),rhsMax =  -6.63995050789596E+01  1.21878364810236E+00
(PID.TID 0000.0001)  ploadbar=  1.01130940395072E+05
 cg2d: Sum(rhs),rhsMax =  -6.64486296061734E+01  1.21830254940473E+00
(PID.TID 0000.0001)  ploadbar=  1.01131295781730E+05
 cg2d: Sum(rhs),rhsMax =  -6.65410808135106E+01  1.21695115450693E+00
(PID.TID 0000.0001)  ploadbar=  1.01131651168389E+05
 cg2d: Sum(rhs),rhsMax =  -6.66776020994144E+01  1.21472553013035E+00
(PID.TID 0000.0001)  ploadbar=  1.01132006555047E+05
 cg2d: Sum(rhs),rhsMax =  -6.68856023717030E+01  1.21114112832661E+00
(PID.TID 0000.0001)  ploadbar=  1.01132361941706E+05
 cg2d: Sum(rhs),rhsMax =  -6.71429502270697E+01  1.20661829827148E+00
(PID.TID 0000.0001)  ploadbar=  1.01132717328364E+05
 cg2d: Sum(rhs),rhsMax =  -6.74405635936372E+01  1.20133882087088E+00
(PID.TID 0000.0001)  ploadbar=  1.01133072715023E+05
 cg2d: Sum(rhs),rhsMax =  -6.76366311975797E+01  1.19796645975861E+00
(PID.TID 0000.0001)  ploadbar=  1.01132503151574E+05
 cg2d: Sum(rhs),rhsMax =  -6.78337433796400E+01  1.19465565350445E+00
(PID.TID 0000.0001)  ploadbar=  1.01131933588125E+05
 cg2d: Sum(rhs),rhsMax =  -6.79997155055403E+01  1.19196770374173E+00
(PID.TID 0000.0001)  ploadbar=  1.01131364024676E+05
 cg2d: Sum(rhs),rhsMax =  -6.81317322292047E+01  1.18994562162112E+00
(PID.TID 0000.0001)  ploadbar=  1.01130794461228E+05
 cg2d: Sum(rhs),rhsMax =  -6.82283017188908E+01  1.18861125317300E+00
(PID.TID 0000.0001)  ploadbar=  1.01130224897779E+05
 cg2d: Sum(rhs),rhsMax =  -6.82900487421956E+01  1.18794874676055E+00
(PID.TID 0000.0001)  ploadbar=  1.01129655334330E+05
 cg2d: Sum(rhs),rhsMax =  -6.82804400333343E+01  1.18851149361077E+00
(PID.TID 0000.0001)  ploadbar=  1.01130308624749E+05
 cg2d: Sum(rhs),rhsMax =  -6.82569650827932E+01  1.18929905046521E+00
(PID.TID 0000.0001)  ploadbar=  1.01130961915168E+05
 cg2d: Sum(rhs),rhsMax =  -6.82215454170824E+01  1.19027899363962E+00
(PID.TID 0000.0001)  ploadbar=  1.01131615205587E+05
 cg2d: Sum(rhs),rhsMax =  -6.81820328505554E+01  1.19131494245931E+00
(PID.TID 0000.0001)  ploadbar=  1.01132268496006E+05
 cg2d: Sum(rhs),rhsMax =  -6.81599658209526E+01  1.19203025084707E+00
(PID.TID 0000.0001)  ploadbar=  1.01132921786425E+05
 cg2d: Sum(rhs),rhsMax =  -6.81632718411388E+01  1.19228578445132E+00
(PID.TID 0000.0001)  ploadbar=  1.01133575076844E+05
 cg2d: Sum(rhs),rhsMax =  -6.81061148954407E+01  1.19360229595025E+00
(PID.TID 0000.0001)  ploadbar=  1.01133789471669E+05
 cg2d: Sum(rhs),rhsMax =  -6.80765503820249E+01  1.19443299175543E+00
(PID.TID 0000.0001)  ploadbar=  1.01134003866495E+05
 cg2d: Sum(rhs),rhsMax =  -6.80495633906364E+01  1.19521474175936E+00
(PID.TID 0000.0001)  ploadbar=  1.01134218261320E+05
 cg2d: Sum(rhs),rhsMax =  -6.80259867250028E+01  1.19593374271909E+00
(PID.TID 0000.0001)  ploadbar=  1.01134432656146E+05
 cg2d: Sum(rhs),rhsMax =  -6.80117939000747E+01  1.19648698690003E+00
(PID.TID 0000.0001)  ploadbar=  1.01134647050971E+05
 cg2d: Sum(rhs),rhsMax =  -6.79909450825383E+01  1.19715989507023E+00
(PID.TID 0000.0001)  ploadbar=  1.01134861445797E+05
 cg2d: Sum(rhs),rhsMax =  -6.79557889958030E+01  1.19802477367695E+00
(PID.TID 0000.0001)  ploadbar=  1.01133812565457E+05
 cg2d: Sum(rhs),rhsMax =  -6.78916362829788E+01  1.19933892686656E+00
(PID.TID 0000.0001)  ploadbar=  1.01132763685117E+05
 cg2d: Sum(rhs),rhsMax =  -6.78072350478649E+01  1.20095348907449E+00
(PID.TID 0000.0001)  ploadbar=  1.01131714804777E+05
 cg2d: Sum(rhs),rhsMax =  -6.76924946478182E+01  1.20305456687864E+00
(PID.TID 0000.0001)  ploadbar=  1.01130665924437E+05
 cg2d: Sum(rhs),rhsMax =  -6.75613490776739E+01  1.20540217383617E+00
(PID.TID 0000.0001)  ploadbar=  1.01129617044097E+05
 cg2d: Sum(rhs),rhsMax =  -6.74384612729046E+01  1.20755718258540E+00
(PID.TID 0000.0001)  ploadbar=  1.01128568163758E+05
 cg2d: Sum(rhs),rhsMax =  -6.74281412270308E+01  1.20776723609482E+00
(PID.TID 0000.0001)  ploadbar=  1.01127572200042E+05
 cg2d: Sum(rhs),rhsMax =  -6.74084213060558E+01  1.20820206215581E+00
(PID.TID 0000.0001)  ploadbar=  1.01126576236327E+05
 cg2d: Sum(rhs),rhsMax =  -6.73934710129024E+01  1.20860903807119E+00
(PID.TID 0000.0001)  ploadbar=  1.01125580272611E+05
 cg2d: Sum(rhs),rhsMax =  -6.74074343523979E+01  1.20855598600260E+00
(PID.TID 0000.0001)  ploadbar=  1.01124584308896E+05
 cg2d: Sum(rhs),rhsMax =  -6.74516026560222E+01  1.20801940165077E+00
(PID.TID 0000.0001)  ploadbar=  1.01123588345180E+05
 cg2d: Sum(rhs),rhsMax =  -6.75377753160775E+01  1.20679380663631E+00
(PID.TID 0000.0001)  ploadbar=  1.01122592381465E+05
 cg2d: Sum(rhs),rhsMax =  -6.77477573482556E+01  1.20335981229611E+00
(PID.TID 0000.0001)  ploadbar=  1.01121363376317E+05
 cg2d: Sum(rhs),rhsMax =  -6.76719034287509E+01  1.20500861827967E+00
(PID.TID 0000.0001)  ploadbar=  1.01120134371170E+05
 cg2d: Sum(rhs),rhsMax =  -6.76142104760564E+01  1.20633322289153E+00
(PID.TID 0000.0001)  ploadbar=  1.01118905366022E+05
 cg2d: Sum(rhs),rhsMax =  -6.75845383544320E+01  1.20715677353516E+00
(PID.TID 0000.0001)  ploadbar=  1.01117676360875E+05
 cg2d: Sum(rhs),rhsMax =  -6.75699935049622E+01  1.20771567072805E+00
(PID.TID 0000.0001)  ploadbar=  1.01116447355728E+05
 cg2d: Sum(rhs),rhsMax =  -6.75603013903105E+01  1.20819687335413E+00
(PID.TID 0000.0001)  ploadbar=  1.01115218350580E+05
 cg2d: Sum(rhs),rhsMax =  -6.75224503048773E+01  1.20922186818242E+00
(PID.TID 0000.0001)  ploadbar=  1.01114595599669E+05
 cg2d: Sum(rhs),rhsMax =  -6.74352021441797E+01  1.21116709454082E+00
(PID.TID 0000.0001)  ploadbar=  1.01113972848757E+05
 cg2d: Sum(rhs),rhsMax =  -6.72956952512872E+01  1.21409546124376E+00
(PID.TID 0000.0001)  ploadbar=  1.01113350097846E+05
 cg2d: Sum(rhs),rhsMax =  -6.71128757281240E+01  1.21786098702443E+00
(PID.TID 0000.0001)  ploadbar=  1.01112727346934E+05
 cg2d: Sum(rhs),rhsMax =  -6.69135664356205E+01  1.22199194900190E+00
(PID.TID 0000.0001)  ploadbar=  1.01112104596023E+05
 cg2d: Sum(rhs),rhsMax =  -6.67276324167041E+01  1.22594973623931E+00
(PID.TID 0000.0001)  ploadbar=  1.01111481845111E+05
 cg2d: Sum(rhs),rhsMax =  -6.64685805426889E+01  1.23123103880513E+00
(PID.TID 0000.0001)  ploadbar=  1.01110582923777E+05
 cg2d: Sum(rhs),rhsMax =  -6.62955268846443E+01  1.23489559990900E+00
(PID.TID 0000.0001)  ploadbar=  1.01109684002443E+05
 cg2d: Sum(rhs),rhsMax =  -6.62781016787856E+01  1.23561818554958E+00
(PID.TID 0000.0001)  ploadbar=  1.01108785081109E+05
 cg2d: Sum(rhs),rhsMax =  -6.63988841331262E+01  1.23372093817039E+00
(PID.TID 0000.0001)  ploadbar=  1.01107886159774E+05
 cg2d: Sum(rhs),rhsMax =  -6.68042818258327E+01  1.22654111691908E+00
(PID.TID 0000.0001)  ploadbar=  1.01106987238440E+05
 cg2d: Sum(rhs),rhsMax =  -6.77478019156263E+01  1.20972363792340E+00
(PID.TID 0000.0001)  ploadbar=  1.01106088317106E+05
 cg2d: Sum(rhs),rhsMax =  -6.78834230419017E+01  1.20762646941940E+00
(PID.TID 0000.0001)  ploadbar=  1.01107364155545E+05
 cg2d: Sum(rhs),rhsMax =  -6.78255677067942E+01  1.20903172000296E+00
(PID.TID 0000.0001)  ploadbar=  1.01108639993984E+05
 cg2d: Sum(rhs),rhsMax =  -6.78493456488039E+01  1.20903657417905E+00
(PID.TID 0000.0001)  ploadbar=  1.01109915832423E+05
 cg2d: Sum(rhs),rhsMax =  -6.79521789420250E+01  1.20769167296698E+00
(PID.TID 0000.0001)  ploadbar=  1.01111191670862E+05
 cg2d: Sum(rhs),rhsMax =  -6.81095149530834E+01  1.20544873946379E+00
(PID.TID 0000.0001)  ploadbar=  1.01112467509301E+05
 cg2d: Sum(rhs),rhsMax =  -6.82831336494882E+01  1.20299414810557E+00
(PID.TID 0000.0001)  ploadbar=  1.01113743347740E+05
 cg2d: Sum(rhs),rhsMax =  -6.82595548715079E+01  1.20399278382263E+00
(PID.TID 0000.0001)  ploadbar=  1.01113584410854E+05
 cg2d: Sum(rhs),rhsMax =  -6.82289414123623E+01  1.20508916565465E+00
(PID.TID 0000.0001)  ploadbar=  1.01113425473969E+05
 cg2d: Sum(rhs),rhsMax =  -6.81971662902500E+01  1.20618684517671E+00
(PID.TID 0000.0001)  ploadbar=  1.01113266537083E+05
 cg2d: Sum(rhs),rhsMax =  -6.81670857452679E+01  1.20723797867221E+00
(PID.TID 0000.0001)  ploadbar=  1.01113107600197E+05
 cg2d: Sum(rhs),rhsMax =  -6.81403833102445E+01  1.20821670431744E+00
(PID.TID 0000.0001)  ploadbar=  1.01112948663312E+05
 cg2d: Sum(rhs),rhsMax =  -6.81217101566561E+01  1.20904208977326E+00
(PID.TID 0000.0001)  ploadbar=  1.01112789726426E+05
 cg2d: Sum(rhs),rhsMax =  -6.80414781019180E+01  1.21100564304751E+00
(PID.TID 0000.0001)  ploadbar=  1.01112199177453E+05
 cg2d: Sum(rhs),rhsMax =  -6.79562612598880E+01  1.21310501316517E+00
(PID.TID 0000.0001)  ploadbar=  1.01111608628480E+05
 cg2d: Sum(rhs),rhsMax =  -6.78116831256637E+01  1.21631647583334E+00
(PID.TID 0000.0001)  ploadbar=  1.01111018079507E+05
 cg2d: Sum(rhs),rhsMax =  -6.76239522845769E+01  1.22036559780151E+00
(PID.TID 0000.0001)  ploadbar=  1.01110427530535E+05
 cg2d: Sum(rhs),rhsMax =  -6.74060214752456E+01  1.22503384078169E+00
(PID.TID 0000.0001)  ploadbar=  1.01109836981562E+05
 cg2d: Sum(rhs),rhsMax =  -6.71727049515763E+01  1.23006596157849E+00
(PID.TID 0000.0001)  ploadbar=  1.01109246432589E+05
 cg2d: Sum(rhs),rhsMax =  -6.69986099364615E+01  1.23397731611069E+00
(PID.TID 0000.0001)  ploadbar=  1.01109096272372E+05
 cg2d: Sum(rhs),rhsMax =  -6.68619842879850E+01  1.23714687041832E+00
(PID.TID 0000.0001)  ploadbar=  1.01108946112155E+05
 cg2d: Sum(rhs),rhsMax =  -6.66678732329153E+01  1.24133234496851E+00
(PID.TID 0000.0001)  ploadbar=  1.01108795951938E+05
 cg2d: Sum(rhs),rhsMax =  -6.65007218433637E+01  1.24497388270514E+00
(PID.TID 0000.0001)  ploadbar=  1.01108645791721E+05
 cg2d: Sum(rhs),rhsMax =  -6.63895258608973E+01  1.24751704679964E+00
(PID.TID 0000.0001)  ploadbar=  1.01108495631504E+05
 cg2d: Sum(rhs),rhsMax =  -6.63305247138569E+01  1.24901828505302E+00
(PID.TID 0000.0001)  ploadbar=  1.01108345471287E+05
 cg2d: Sum(rhs),rhsMax =  -6.62490576111912E+01  1.25098926311182E+00
(PID.TID 0000.0001)  ploadbar=  1.01107045492021E+05
 cg2d: Sum(rhs),rhsMax =  -6.61959059553917E+01  1.25247154284245E+00
(PID.TID 0000.0001)  ploadbar=  1.01105745512755E+05
 cg2d: Sum(rhs),rhsMax =  -6.62530806235814E+01  1.25191285582264E+00
(PID.TID 0000.0001)  ploadbar=  1.01104445533489E+05
 cg2d: Sum(rhs),rhsMax =  -6.64098798573476E+01  1.24952549213874E+00
(PID.TID 0000.0001)  ploadbar=  1.01103145554223E+05
 cg2d: Sum(rhs),rhsMax =  -6.66579803935375E+01  1.24549088527381E+00
(PID.TID 0000.0001)  ploadbar=  1.01101845574957E+05
 cg2d: Sum(rhs),rhsMax =  -6.69312455576024E+01  1.24107388238091E+00
(PID.TID 0000.0001)  ploadbar=  1.01100545595691E+05
 cg2d: Sum(rhs),rhsMax =  -6.70825933901237E+01  1.23895695761700E+00
(PID.TID 0000.0001)  ploadbar=  1.01099411674153E+05
 cg2d: Sum(rhs),rhsMax =  -6.72099665761819E+01  1.23730752690110E+00
(PID.TID 0000.0001)  ploadbar=  1.01098277752616E+05
 cg2d: Sum(rhs),rhsMax =  -6.73403642391403E+01  1.23562679742299E+00
(PID.TID 0000.0001)  ploadbar=  1.01097143831078E+05
 cg2d: Sum(rhs),rhsMax =  -6.74760006118647E+01  1.23387747541195E+00
(PID.TID 0000.0001)  ploadbar=  1.01096009909541E+05
 cg2d: Sum(rhs),rhsMax =  -6.76383922797945E+01  1.23167306310141E+00
(PID.TID 0000.0001)  ploadbar=  1.01094875988003E+05
 cg2d: Sum(rhs),rhsMax =  -6.78448471285372E+01  1.22870668414214E+00
(PID.TID 0000.0001)  ploadbar=  1.01093742066466E+05
 cg2d: Sum(rhs),rhsMax =  -6.80411304330662E+01  1.22596948666763E+00
(PID.TID 0000.0001)  ploadbar=  1.01092701111389E+05
 cg2d: Sum(rhs),rhsMax =  -6.82250434048843E+01  1.22349922356748E+00
(PID.TID 0000.0001)  ploadbar=  1.01091660156312E+05
 cg2d: Sum(rhs),rhsMax =  -6.83925867626043E+01  1.22136798862881E+00
(PID.TID 0000.0001)  ploadbar=  1.01090619201235E+05
 cg2d: Sum(rhs),rhsMax =  -6.85142309730526E+01  1.22010194344223E+00
(PID.TID 0000.0001)  ploadbar=  1.01089578246158E+05
 cg2d: Sum(rhs),rhsMax =  -6.85812624578073E+01  1.21985140991938E+00
(PID.TID 0000.0001)  ploadbar=  1.01088537291081E+05
 cg2d: Sum(rhs),rhsMax =  -6.85913508661608E+01  1.22065653742217E+00
(PID.TID 0000.0001)  ploadbar=  1.01087496336004E+05
 cg2d: Sum(rhs),rhsMax =  -6.84556484116633E+01  1.22399268743857E+00
(PID.TID 0000.0001)  ploadbar=  1.01086826328499E+05
 cg2d: Sum(rhs),rhsMax =  -6.82528735714294E+01  1.22847559608047E+00
(PID.TID 0000.0001)  ploadbar=  1.01086156320993E+05
 cg2d: Sum(rhs),rhsMax =  -6.80073132794763E+01  1.23368989347100E+00
(PID.TID 0000.0001)  ploadbar=  1.01085486313488E+05
 cg2d: Sum(rhs),rhsMax =  -6.77269317096501E+01  1.23951069167186E+00
(PID.TID 0000.0001)  ploadbar=  1.01084816305982E+05
 cg2d: Sum(rhs),rhsMax =  -6.73763165855468E+01  1.24660601592745E+00
(PID.TID 0000.0001)  ploadbar=  1.01084146298477E+05
 cg2d: Sum(rhs),rhsMax =  -6.69356516628971E+01  1.25538609370554E+00
(PID.TID 0000.0001)  ploadbar=  1.01083476290971E+05
 cg2d: Sum(rhs),rhsMax =  -6.65292620370702E+01  1.26367055190400E+00
(PID.TID 0000.0001)  ploadbar=  1.01083304002315E+05
 cg2d: Sum(rhs),rhsMax =  -6.61716251134517E+01  1.27115875163954E+00
(PID.TID 0000.0001)  ploadbar=  1.01083131713659E+05
 cg2d: Sum(rhs),rhsMax =  -6.58538272516839E+01  1.27799481989695E+00
(PID.TID 0000.0001)  ploadbar=  1.01082959425003E+05
 cg2d: Sum(rhs),rhsMax =  -6.55777622933636E+01  1.28412075884900E+00
(PID.TID 0000.0001)  ploadbar=  1.01082787136347E+05
 cg2d: Sum(rhs),rhsMax =  -6.53353068334339E+01  1.28967733623299E+00
(PID.TID 0000.0001)  ploadbar=  1.01082614847692E+05
 cg2d: Sum(rhs),rhsMax =  -6.51313175870303E+01  1.29455667557451E+00
(PID.TID 0000.0001)  ploadbar=  1.01082442559036E+05
 cg2d: Sum(rhs),rhsMax =  -6.50193420034067E+01  1.29762095251637E+00
(PID.TID 0000.0001)  ploadbar=  1.01083286208359E+05
 cg2d: Sum(rhs),rhsMax =  -6.49220904893359E+01  1.30039196630875E+00
(PID.TID 0000.0001)  ploadbar=  1.01084129857683E+05
 cg2d: Sum(rhs),rhsMax =  -6.48370113732059E+01  1.30291902762268E+00
(PID.TID 0000.0001)  ploadbar=  1.01084973507007E+05
 cg2d: Sum(rhs),rhsMax =  -6.47841805579799E+01  1.30479811169958E+00
(PID.TID 0000.0001)  ploadbar=  1.01085817156330E+05
 cg2d: Sum(rhs),rhsMax =  -6.47640558719109E+01  1.30601840798464E+00
(PID.TID 0000.0001)  ploadbar=  1.01086660805654E+05
 cg2d: Sum(rhs),rhsMax =  -6.47764494335017E+01  1.30658468326364E+00
(PID.TID 0000.0001)  ploadbar=  1.01087504454978E+05
 cg2d: Sum(rhs),rhsMax =  -6.48374498897191E+01  1.30622228945629E+00
(PID.TID 0000.0001)  ploadbar=  1.01086759892293E+05
 cg2d: Sum(rhs),rhsMax =  -6.49161664799808E+01  1.30555149833202E+00
(PID.TID 0000.0001)  ploadbar=  1.01086015329608E+05
 cg2d: Sum(rhs),rhsMax =  -6.50032281409562E+01  1.30476520934081E+00
(PID.TID 0000.0001)  ploadbar=  1.01085270766922E+05
 cg2d: Sum(rhs),rhsMax =  -6.51117356290708E+01  1.30360290879889E+00
(PID.TID 0000.0001)  ploadbar=  1.01084526204237E+05
 cg2d: Sum(rhs),rhsMax =  -6.52395642245347E+01  1.30210941022578E+00
(PID.TID 0000.0001)  ploadbar=  1.01083781641552E+05
 cg2d: Sum(rhs),rhsMax =  -6.53748451878603E+01  1.30052658267502E+00
(PID.TID 0000.0001)  ploadbar=  1.01083037078867E+05
 cg2d: Sum(rhs),rhsMax =  -6.55213401048611E+01  1.29862430122315E+00
(PID.TID 0000.0001)  ploadbar=  1.01082852806172E+05
 cg2d: Sum(rhs),rhsMax =  -6.56685947909175E+01  1.29660761552460E+00
(PID.TID 0000.0001)  ploadbar=  1.01082668533477E+05
 cg2d: Sum(rhs),rhsMax =  -6.58000114600446E+01  1.29480468629119E+00
(PID.TID 0000.0001)  ploadbar=  1.01082484260782E+05
 cg2d: Sum(rhs),rhsMax =  -6.59131755267380E+01  1.29326534005548E+00
(PID.TID 0000.0001)  ploadbar=  1.01082299988087E+05
 cg2d: Sum(rhs),rhsMax =  -6.60129727877074E+01  1.29189068508804E+00
(PID.TID 0000.0001)  ploadbar=  1.01082115715392E+05
 cg2d: Sum(rhs),rhsMax =  -6.61013881659820E+01  1.29063623086486E+00
(PID.TID 0000.0001)  ploadbar=  1.01081931442697E+05
 cg2d: Sum(rhs),rhsMax =  -6.62229069454640E+01  1.28878026682480E+00
(PID.TID 0000.0001)  ploadbar=  1.01081581899087E+05
 cg2d: Sum(rhs),rhsMax =  -6.63256369171304E+01  1.28733415985502E+00
(PID.TID 0000.0001)  ploadbar=  1.01081232355477E+05
 cg2d: Sum(rhs),rhsMax =  -6.64009345926048E+01  1.28646272213878E+00
(PID.TID 0000.0001)  ploadbar=  1.01080882811867E+05
 cg2d: Sum(rhs),rhsMax =  -6.64515713230523E+01  1.28610717239281E+00
(PID.TID 0000.0001)  ploadbar=  1.01080533268257E+05
 cg2d: Sum(rhs),rhsMax =  -6.64698540467969E+01  1.28641652186014E+00
(PID.TID 0000.0001)  ploadbar=  1.01080183724647E+05
 cg2d: Sum(rhs),rhsMax =  -6.64693464316967E+01  1.28712935405563E+00
(PID.TID 0000.0001)  ploadbar=  1.01079834181037E+05
 cg2d: Sum(rhs),rhsMax =  -6.66572269165239E+01  1.28415701653535E+00
(PID.TID 0000.0001)  ploadbar=  1.01078923877792E+05
 cg2d: Sum(rhs),rhsMax =  -6.70349378150094E+01  1.27752675871998E+00
(PID.TID 0000.0001)  ploadbar=  1.01078013574547E+05
 cg2d: Sum(rhs),rhsMax =  -6.74930527856920E+01  1.26941200205421E+00
(PID.TID 0000.0001)  ploadbar=  1.01077103271302E+05
 cg2d: Sum(rhs),rhsMax =  -6.80267589081635E+01  1.25996380849145E+00
(PID.TID 0000.0001)  ploadbar=  1.01076192968058E+05
 cg2d: Sum(rhs),rhsMax =  -6.86158802388551E+01  1.24961969298404E+00
(PID.TID 0000.0001)  ploadbar=  1.01075282664813E+05
 cg2d: Sum(rhs),rhsMax =  -6.92530723975134E+01  1.23856736679442E+00
(PID.TID 0000.0001)  ploadbar=  1.01074372361568E+05
 cg2d: Sum(rhs),rhsMax =  -6.99525186769955E+01  1.22666939978681E+00
(PID.TID 0000.0001)  ploadbar=  1.01073358278788E+05
 cg2d: Sum(rhs),rhsMax =  -7.06478607655442E+01  1.21511538739831E+00
(PID.TID 0000.0001)  ploadbar=  1.01072344196008E+05
 cg2d: Sum(rhs),rhsMax =  -7.12974546043808E+01  1.20460105418063E+00
(PID.TID 0000.0001)  ploadbar=  1.01071330113228E+05
 cg2d: Sum(rhs),rhsMax =  -7.19171132723934E+01  1.19481581029897E+00
(PID.TID 0000.0001)  ploadbar=  1.01070316030448E+05
 cg2d: Sum(rhs),rhsMax =  -7.25117864470809E+01  1.18564989161154E+00
(PID.TID 0000.0001)  ploadbar=  1.01069301947668E+05
 cg2d: Sum(rhs),rhsMax =  -7.30802188989579E+01  1.17710087858561E+00
(PID.TID 0000.0001)  ploadbar=  1.01068287864888E+05
 cg2d: Sum(rhs),rhsMax =  -7.33978345603644E+01  1.17259966937393E+00
(PID.TID 0000.0001)  ploadbar=  1.01067765693047E+05
 cg2d: Sum(rhs),rhsMax =  -7.37586263238188E+01  1.16737407327798E+00
(PID.TID 0000.0001)  ploadbar=  1.01067243521206E+05
 cg2d: Sum(rhs),rhsMax =  -7.41469645669165E+01  1.16169280454402E+00
(PID.TID 0000.0001)  ploadbar=  1.01066721349365E+05
 cg2d: Sum(rhs),rhsMax =  -7.46077899462569E+01  1.15487900901495E+00
(PID.TID 0000.0001)  ploadbar=  1.01066199177524E+05
 cg2d: Sum(rhs),rhsMax =  -7.52107250215319E+01  1.14591352309799E+00
(PID.TID 0000.0001)  ploadbar=  1.01065677005682E+05
 cg2d: Sum(rhs),rhsMax =  -7.58465095746723E+01  1.13652769284073E+00
(PID.TID 0000.0001)  ploadbar=  1.01065154833841E+05
 cg2d: Sum(rhs),rhsMax =  -7.67956213700958E+01  1.12272315227462E+00
(PID.TID 0000.0001)  ploadbar=  1.01063994978433E+05
 cg2d: Sum(rhs),rhsMax =  -7.81728306350332E+01  1.10320084629606E+00
(PID.TID 0000.0001)  ploadbar=  1.01062835123024E+05
 cg2d: Sum(rhs),rhsMax =  -7.96394733853550E+01  1.08315555556027E+00
(PID.TID 0000.0001)  ploadbar=  1.01061675267616E+05
 cg2d: Sum(rhs),rhsMax =  -8.10512920606117E+01  1.06457384714276E+00
(PID.TID 0000.0001)  ploadbar=  1.01060515412207E+05
 cg2d: Sum(rhs),rhsMax =  -8.24455481734298E+01  1.04687029293011E+00
(PID.TID 0000.0001)  ploadbar=  1.01059355556799E+05
 cg2d: Sum(rhs),rhsMax =  -8.31322526998399E+01  1.03854061705479E+00
(PID.TID 0000.0001)  ploadbar=  1.01058195701390E+05
 cg2d: Sum(rhs),rhsMax =  -8.22732152847447E+01  1.04969827347641E+00
(PID.TID 0000.0001)  ploadbar=  1.01056807551891E+05
 cg2d: Sum(rhs),rhsMax =  -8.14601571908252E+01  1.06048413816336E+00
(PID.TID 0000.0001)  ploadbar=  1.01055419402391E+05
 cg2d: Sum(rhs),rhsMax =  -8.07014869852124E+01  1.07076064162790E+00
(PID.TID 0000.0001)  ploadbar=  1.01054031252892E+05
 cg2d: Sum(rhs),rhsMax =  -7.99922074587095E+01  1.08056483071441E+00
(PID.TID 0000.0001)  ploadbar=  1.01052643103392E+05
 cg2d: Sum(rhs),rhsMax =  -7.93363454831525E+01  1.08981779525689E+00
(PID.TID 0000.0001)  ploadbar=  1.01051254953893E+05
 cg2d: Sum(rhs),rhsMax =  -7.87245165935554E+01  1.09863198637204E+00
(PID.TID 0000.0001)  ploadbar=  1.01049866804394E+05
 cg2d: Sum(rhs),rhsMax =  -7.82806997875122E+01  1.10525681780824E+00
(PID.TID 0000.0001)  ploadbar=  1.01048264543047E+05
 cg2d: Sum(rhs),rhsMax =  -7.79428861701161E+01  1.11048755811503E+00
(PID.TID 0000.0001)  ploadbar=  1.01046662281700E+05
 cg2d: Sum(rhs),rhsMax =  -7.77536695420287E+01  1.11367619323263E+00
(PID.TID 0000.0001)  ploadbar=  1.01045060020353E+05
 cg2d: Sum(rhs),rhsMax =  -7.76974687278989E+01  1.11501344302963E+00
(PID.TID 0000.0001)  ploadbar=  1.01043457759006E+05
 cg2d: Sum(rhs),rhsMax =  -7.66676032246739E+01  1.13057568520554E+00
(PID.TID 0000.0001)  ploadbar=  1.01041855497659E+05
 cg2d: Sum(rhs),rhsMax =  -7.55443157854813E+01  1.14802482863954E+00
(PID.TID 0000.0001)  ploadbar=  1.01040253236312E+05
 cg2d: Sum(rhs),rhsMax =  -7.44406258304507E+01  1.16561735115491E+00
(PID.TID 0000.0001)  ploadbar=  1.01040131450435E+05
 cg2d: Sum(rhs),rhsMax =  -7.33847028653535E+01  1.18289362963483E+00
(PID.TID 0000.0001)  ploadbar=  1.01040009664557E+05
 cg2d: Sum(rhs),rhsMax =  -7.24916382241999E+01  1.19790370396893E+00
(PID.TID 0000.0001)  ploadbar=  1.01039887878680E+05
 cg2d: Sum(rhs),rhsMax =  -7.18452029876295E+01  1.20905276555630E+00
(PID.TID 0000.0001)  ploadbar=  1.01039766092802E+05
 cg2d: Sum(rhs),rhsMax =  -7.14805116187505E+01  1.21552378854138E+00
(PID.TID 0000.0001)  ploadbar=  1.01039644306925E+05
 cg2d: Sum(rhs),rhsMax =  -7.14117664686678E+01  1.21692111738752E+00
(PID.TID 0000.0001)  ploadbar=  1.01039522521047E+05
 cg2d: Sum(rhs),rhsMax =  -7.15990005238759E+01  1.21399045153994E+00
(PID.TID 0000.0001)  ploadbar=  1.01041165243619E+05
 cg2d: Sum(rhs),rhsMax =  -7.19656863793825E+01  1.20807653128661E+00
(PID.TID 0000.0001)  ploadbar=  1.01042807966191E+05
 cg2d: Sum(rhs),rhsMax =  -7.24425709357447E+01  1.20041483037463E+00
(PID.TID 0000.0001)  ploadbar=  1.01044450688763E+05
 cg2d: Sum(rhs),rhsMax =  -7.23343203332564E+01  1.20252371450568E+00
(PID.TID 0000.0001)  ploadbar=  1.01046093411335E+05
 cg2d: Sum(rhs),rhsMax =  -7.17514254714471E+01  1.21263148432319E+00
(PID.TID 0000.0001)  ploadbar=  1.01047736133907E+05
 cg2d: Sum(rhs),rhsMax =  -7.11119774841137E+01  1.22390424086121E+00
(PID.TID 0000.0001)  ploadbar=  1.01049378856479E+05
 cg2d: Sum(rhs),rhsMax =  -7.00881970976774E+01  1.24214310364579E+00
(PID.TID 0000.0001)  ploadbar=  1.01050774038857E+05
 cg2d: Sum(rhs),rhsMax =  -6.83350606706038E+01  1.27436797381571E+00
(PID.TID 0000.0001)  ploadbar=  1.01052169221235E+05
 cg2d: Sum(rhs),rhsMax =  -6.65733788167725E+01  1.30844942121389E+00
(PID.TID 0000.0001)  ploadbar=  1.01053564403614E+05
 cg2d: Sum(rhs),rhsMax =  -6.56686882414468E+01  1.32683316424544E+00
(PID.TID 0000.0001)  ploadbar=  1.01054959585992E+05
 cg2d: Sum(rhs),rhsMax =  -6.51141177917520E+01  1.33849774373958E+00
(PID.TID 0000.0001)  ploadbar=  1.01056354768370E+05
 cg2d: Sum(rhs),rhsMax =  -6.46127327562077E+01  1.34926495116655E+00
(PID.TID 0000.0001)  ploadbar=  1.01057749950748E+05
 cg2d: Sum(rhs),rhsMax =  -6.42119053408469E+01  1.35812644746150E+00
(PID.TID 0000.0001)  ploadbar=  1.01059536933936E+05
 cg2d: Sum(rhs),rhsMax =  -6.38135885452743E+01  1.36709443520010E+00
(PID.TID 0000.0001)  ploadbar=  1.01061323917123E+05
 cg2d: Sum(rhs),rhsMax =  -6.33766200498560E+01  1.37706250674738E+00
(PID.TID 0000.0001)  ploadbar=  1.01063110900311E+05
 cg2d: Sum(rhs),rhsMax =  -6.27346206429412E+01  1.39175490339496E+00
(PID.TID 0000.0001)  ploadbar=  1.01064897883498E+05
 cg2d: Sum(rhs),rhsMax =  -6.18977401746120E+01  1.41123620503534E+00
(PID.TID 0000.0001)  ploadbar=  1.01066684866686E+05
 cg2d: Sum(rhs),rhsMax =  -6.09386837232944E+01  1.43417866322975E+00
(PID.TID 0000.0001)  ploadbar=  1.01068471849874E+05
 cg2d: Sum(rhs),rhsMax =  -5.98945900646285E+01  1.45986663533010E+00
(PID.TID 0000.0001)  ploadbar=  1.01070593432281E+05
 cg2d: Sum(rhs),rhsMax =  -5.87478799989849E+01  1.48900236545678E+00
(PID.TID 0000.0001)  ploadbar=  1.01072715014688E+05
 cg2d: Sum(rhs),rhsMax =  -5.75015536626137E+01  1.52187098913266E+00
(PID.TID 0000.0001)  ploadbar=  1.01074836597095E+05
 cg2d: Sum(rhs),rhsMax =  -5.62511783848193E+01  1.55625052062640E+00
(PID.TID 0000.0001)  ploadbar=  1.01076958179502E+05
 cg2d: Sum(rhs),rhsMax =  -5.50433333188301E+01  1.59090573933384E+00
(PID.TID 0000.0001)  ploadbar=  1.01079079761909E+05
 cg2d: Sum(rhs),rhsMax =  -5.38311191991324E+01  1.62718675600283E+00
(PID.TID 0000.0001)  ploadbar=  1.01081201344317E+05
 cg2d: Sum(rhs),rhsMax =  -5.29858990662740E+01  1.65367337885832E+00
(PID.TID 0000.0001)  ploadbar=  1.01083886422666E+05
 cg2d: Sum(rhs),rhsMax =  -5.26637961810232E+01  1.66438195397436E+00
(PID.TID 0000.0001)  ploadbar=  1.01086571501015E+05
 cg2d: Sum(rhs),rhsMax =  -5.29197369770140E+01  1.65698435865142E+00
(PID.TID 0000.0001)  ploadbar=  1.01089256579364E+05
 cg2d: Sum(rhs),rhsMax =  -5.37672002344967E+01  1.63156776522901E+00
(PID.TID 0000.0001)  ploadbar=  1.01091941657713E+05
 cg2d: Sum(rhs),rhsMax =  -5.46523471308664E+01  1.60589475756447E+00
(PID.TID 0000.0001)  ploadbar=  1.01094626736062E+05
 cg2d: Sum(rhs),rhsMax =  -5.55607280649094E+01  1.58044408922533E+00
(PID.TID 0000.0001)  ploadbar=  1.01097311814411E+05
 cg2d: Sum(rhs),rhsMax =  -5.64296282266011E+01  1.55686365177931E+00
(PID.TID 0000.0001)  ploadbar=  1.01098268134537E+05
 cg2d: Sum(rhs),rhsMax =  -5.72895534524377E+01  1.53420214434797E+00
(PID.TID 0000.0001)  ploadbar=  1.01099224454664E+05
 cg2d: Sum(rhs),rhsMax =  -5.81363541288916E+01  1.51251836511571E+00
(PID.TID 0000.0001)  ploadbar=  1.01100180774790E+05
 cg2d: Sum(rhs),rhsMax =  -5.89761268198556E+01  1.49161114950430E+00
(PID.TID 0000.0001)  ploadbar=  1.01101137094917E+05
 cg2d: Sum(rhs),rhsMax =  -5.98151995568266E+01  1.47129023775937E+00
(PID.TID 0000.0001)  ploadbar=  1.01102093415043E+05
 cg2d: Sum(rhs),rhsMax =  -6.06597988520450E+01  1.45139613607567E+00
(PID.TID 0000.0001)  ploadbar=  1.01103049735169E+05
 cg2d: Sum(rhs),rhsMax =  -6.14826243224617E+01  1.43259821972403E+00
(PID.TID 0000.0001)  ploadbar=  1.01104090568709E+05
 cg2d: Sum(rhs),rhsMax =  -6.15990575416401E+01  1.43054832273763E+00
(PID.TID 0000.0001)  ploadbar=  1.01105131402249E+05
 cg2d: Sum(rhs),rhsMax =  -6.12842388528899E+01  1.43859269714337E+00
(PID.TID 0000.0001)  ploadbar=  1.01106172235789E+05
 cg2d: Sum(rhs),rhsMax =  -6.09744237743904E+01  1.44663756490172E+00
(PID.TID 0000.0001)  ploadbar=  1.01107213069329E+05
 cg2d: Sum(rhs),rhsMax =  -6.06632758597945E+01  1.45483446335607E+00
(PID.TID 0000.0001)  ploadbar=  1.01108253902869E+05
 cg2d: Sum(rhs),rhsMax =  -6.03462761010914E+01  1.46329583310407E+00
(PID.TID 0000.0001)  ploadbar=  1.01109294736409E+05
 cg2d: Sum(rhs),rhsMax =  -6.00059008432737E+01  1.47234811685819E+00
(PID.TID 0000.0001)  ploadbar=  1.01110392765525E+05
 cg2d: Sum(rhs),rhsMax =  -5.96504919013803E+01  1.48180351205812E+00
(PID.TID 0000.0001)  ploadbar=  1.01111490794641E+05
 cg2d: Sum(rhs),rhsMax =  -5.92711956683086E+01  1.49190164974931E+00
(PID.TID 0000.0001)  ploadbar=  1.01112588823757E+05
 cg2d: Sum(rhs),rhsMax =  -5.88700242982869E+01  1.50261840278631E+00
(PID.TID 0000.0001)  ploadbar=  1.01113686852874E+05
 cg2d: Sum(rhs),rhsMax =  -5.84482205029033E+01  1.51394853752074E+00
(PID.TID 0000.0001)  ploadbar=  1.01114784881990E+05
 cg2d: Sum(rhs),rhsMax =  -5.80053758702446E+01  1.52592802440046E+00
(PID.TID 0000.0001)  ploadbar=  1.01115882911106E+05
 cg2d: Sum(rhs),rhsMax =  -5.75800346296301E+01  1.53769614683763E+00
(PID.TID 0000.0001)  ploadbar=  1.01116780141050E+05
 cg2d: Sum(rhs),rhsMax =  -5.71741260089666E+01  1.54917999967531E+00
(PID.TID 0000.0001)  ploadbar=  1.01117677370994E+05
 cg2d: Sum(rhs),rhsMax =  -5.68097573925358E+01  1.55975545578921E+00
(PID.TID 0000.0001)  ploadbar=  1.01118574600937E+05
 cg2d: Sum(rhs),rhsMax =  -5.65038306056268E+01  1.56891327473217E+00
(PID.TID 0000.0001)  ploadbar=  1.01119471830881E+05
 cg2d: Sum(rhs),rhsMax =  -5.62542335104057E+01  1.57666057891904E+00
(PID.TID 0000.0001)  ploadbar=  1.01120369060825E+05
 cg2d: Sum(rhs),rhsMax =  -5.60556470327661E+01  1.58310673818062E+00
(PID.TID 0000.0001)  ploadbar=  1.01121266290769E+05
 cg2d: Sum(rhs),rhsMax =  -5.59220921878519E+01  1.58772647426562E+00
(PID.TID 0000.0001)  ploadbar=  1.01121948811194E+05
 cg2d: Sum(rhs),rhsMax =  -5.58186149246845E+01  1.59148579230413E+00
(PID.TID 0000.0001)  ploadbar=  1.01122631331619E+05
 cg2d: Sum(rhs),rhsMax =  -5.57393178940467E+01  1.59454663056522E+00
(PID.TID 0000.0001)  ploadbar=  1.01123313852045E+05
 cg2d: Sum(rhs),rhsMax =  -5.56792209442933E+01  1.59705424734063E+00
(PID.TID 0000.0001)  ploadbar=  1.01123996372470E+05
 cg2d: Sum(rhs),rhsMax =  -5.56366478707988E+01  1.59906169544652E+00
(PID.TID 0000.0001)  ploadbar=  1.01124678892895E+05
 cg2d: Sum(rhs),rhsMax =  -5.56106399403950E+01  1.60060443509303E+00
(PID.TID 0000.0001)  ploadbar=  1.01125361413320E+05
 cg2d: Sum(rhs),rhsMax =  -5.55532070083272E+01  1.60312146005749E+00
(PID.TID 0000.0001)  ploadbar=  1.01126843386675E+05
 cg2d: Sum(rhs),rhsMax =  -5.55071589548457E+01  1.60537674976805E+00
(PID.TID 0000.0001)  ploadbar=  1.01128325360030E+05
 cg2d: Sum(rhs),rhsMax =  -5.54771611568160E+01  1.60723617357730E+00
(PID.TID 0000.0001)  ploadbar=  1.01129807333384E+05
 cg2d: Sum(rhs),rhsMax =  -5.54583995378219E+01  1.60883724435334E+00
(PID.TID 0000.0001)  ploadbar=  1.01131289306739E+05
 cg2d: Sum(rhs),rhsMax =  -5.54503070335909E+01  1.61019403518402E+00
(PID.TID 0000.0001)  ploadbar=  1.01132771280093E+05
 cg2d: Sum(rhs),rhsMax =  -5.54511290926591E+01  1.61135442872817E+00
(PID.TID 0000.0001)  ploadbar=  1.01134253253448E+05
 cg2d: Sum(rhs),rhsMax =  -5.54495433140550E+01  1.61247342759689E+00
(PID.TID 0000.0001)  ploadbar=  1.01134838336961E+05
 cg2d: Sum(rhs),rhsMax =  -5.54471228082838E+01  1.61350330910605E+00
(PID.TID 0000.0001)  ploadbar=  1.01135423420475E+05
 cg2d: Sum(rhs),rhsMax =  -5.54344998850625E+01  1.61472176148120E+00
(PID.TID 0000.0001)  ploadbar=  1.01136008503988E+05
 cg2d: Sum(rhs),rhsMax =  -5.54087564195210E+01  1.61621959989036E+00
(PID.TID 0000.0001)  ploadbar=  1.01136593587502E+05
 cg2d: Sum(rhs),rhsMax =  -5.53675506339077E+01  1.61807140071791E+00
(PID.TID 0000.0001)  ploadbar=  1.01137178671015E+05
 cg2d: Sum(rhs),rhsMax =  -5.53103467559706E+01  1.62029752736147E+00
(PID.TID 0000.0001)  ploadbar=  1.01137763754529E+05
 cg2d: Sum(rhs),rhsMax =  -5.52726407456333E+01  1.62201407848197E+00
(PID.TID 0000.0001)  ploadbar=  1.01139707825406E+05
 cg2d: Sum(rhs),rhsMax =  -5.52404981387465E+01  1.62362757694321E+00
(PID.TID 0000.0001)  ploadbar=  1.01141651896282E+05
 cg2d: Sum(rhs),rhsMax =  -5.52175739682996E+01  1.62503558532407E+00
(PID.TID 0000.0001)  ploadbar=  1.01143595967159E+05
 cg2d: Sum(rhs),rhsMax =  -5.52096402719882E+01  1.62607278254537E+00
(PID.TID 0000.0001)  ploadbar=  1.01145540038036E+05
 cg2d: Sum(rhs),rhsMax =  -5.52166301324815E+01  1.62673744418379E+00
(PID.TID 0000.0001)  ploadbar=  1.01147484108912E+05
 cg2d: Sum(rhs),rhsMax =  -5.52358503638699E+01  1.62710883296527E+00
(PID.TID 0000.0001)  ploadbar=  1.01149428179789E+05
 cg2d: Sum(rhs),rhsMax =  -5.52595112656016E+01  1.62730510465473E+00
(PID.TID 0000.0001)  ploadbar=  1.01150408580517E+05
 cg2d: Sum(rhs),rhsMax =  -5.52879808234749E+01  1.62731809022300E+00
(PID.TID 0000.0001)  ploadbar=  1.01151388981245E+05
 cg2d: Sum(rhs),rhsMax =  -5.53265827122731E+01  1.62699571804195E+00
(PID.TID 0000.0001)  ploadbar=  1.01152369381974E+05
 cg2d: Sum(rhs),rhsMax =  -5.53734489941624E+01  1.62640126076345E+00
(PID.TID 0000.0001)  ploadbar=  1.01153349782702E+05
 cg2d: Sum(rhs),rhsMax =  -5.54299350365079E+01  1.62550064736571E+00
(PID.TID 0000.0001)  ploadbar=  1.01154330183430E+05
 cg2d: Sum(rhs),rhsMax =  -5.54969930729261E+01  1.62427094697049E+00
(PID.TID 0000.0001)  ploadbar=  1.01155310584159E+05
 cg2d: Sum(rhs),rhsMax =  -5.55664757178954E+01  1.62306160461634E+00
(PID.TID 0000.0001)  ploadbar=  1.01155631357877E+05
 cg2d: Sum(rhs),rhsMax =  -5.56429532533807E+01  1.62173786107985E+00
(PID.TID 0000.0001)  ploadbar=  1.01155952131596E+05
 cg2d: Sum(rhs),rhsMax =  -5.57297475263372E+01  1.62020443746356E+00
(PID.TID 0000.0001)  ploadbar=  1.01156272905314E+05
 cg2d: Sum(rhs),rhsMax =  -5.58272320216031E+01  1.61845283415686E+00
(PID.TID 0000.0001)  ploadbar=  1.01156593679032E+05
 cg2d: Sum(rhs),rhsMax =  -5.59351014033178E+01  1.61649299517709E+00
(PID.TID 0000.0001)  ploadbar=  1.01156914452751E+05
 cg2d: Sum(rhs),rhsMax =  -5.60529446722812E+01  1.61433970178969E+00
(PID.TID 0000.0001)  ploadbar=  1.01157235226469E+05
 cg2d: Sum(rhs),rhsMax =  -5.61698757523656E+01  1.61214366158973E+00
(PID.TID 0000.0001)  ploadbar=  1.01157461144989E+05
 cg2d: Sum(rhs),rhsMax =  -5.62890323174076E+01  1.60981593456543E+00
(PID.TID 0000.0001)  ploadbar=  1.01157687063508E+05
 cg2d: Sum(rhs),rhsMax =  -5.64086052141959E+01  1.60741158549389E+00
(PID.TID 0000.0001)  ploadbar=  1.01157912982027E+05
 cg2d: Sum(rhs),rhsMax =  -5.65251917188761E+01  1.60503121715276E+00
(PID.TID 0000.0001)  ploadbar=  1.01158138900546E+05
 cg2d: Sum(rhs),rhsMax =  -5.66353535837848E+01  1.60277586631396E+00
(PID.TID 0000.0001)  ploadbar=  1.01158364819065E+05
 cg2d: Sum(rhs),rhsMax =  -5.67359737027911E+01  1.60073780656042E+00
(PID.TID 0000.0001)  ploadbar=  1.01158590737585E+05
 cg2d: Sum(rhs),rhsMax =  -5.68347034074457E+01  1.59881154712885E+00
(PID.TID 0000.0001)  ploadbar=  1.01158598601625E+05
 cg2d: Sum(rhs),rhsMax =  -5.69235299864089E+01  1.59722022075471E+00
(PID.TID 0000.0001)  ploadbar=  1.01158606465666E+05
 cg2d: Sum(rhs),rhsMax =  -5.69993998566993E+01  1.59604778845002E+00
(PID.TID 0000.0001)  ploadbar=  1.01158614329707E+05
 cg2d: Sum(rhs),rhsMax =  -5.70629709063983E+01  1.59527592978393E+00
(PID.TID 0000.0001)  ploadbar=  1.01158622193748E+05
 cg2d: Sum(rhs),rhsMax =  -5.71152117026159E+01  1.59487563275238E+00
(PID.TID 0000.0001)  ploadbar=  1.01158630057789E+05
 cg2d: Sum(rhs),rhsMax =  -5.71569570434133E+01  1.59482359237237E+00
(PID.TID 0000.0001)  ploadbar=  1.01158637921830E+05
 cg2d: Sum(rhs),rhsMax =  -5.71838256144510E+01  1.59515835722044E+00
(PID.TID 0000.0001)  ploadbar=  1.01157854220366E+05
 cg2d: Sum(rhs),rhsMax =  -5.71999175857800E+01  1.59576885179453E+00
(PID.TID 0000.0001)  ploadbar=  1.01157070518902E+05
 cg2d: Sum(rhs),rhsMax =  -5.72037434427506E+01  1.59670607259279E+00
(PID.TID 0000.0001)  ploadbar=  1.01156286817438E+05
 cg2d: Sum(rhs),rhsMax =  -5.71976193941402E+01  1.59791749360257E+00
(PID.TID 0000.0001)  ploadbar=  1.01155503115974E+05
 cg2d: Sum(rhs),rhsMax =  -5.71834226055686E+01  1.59935296892705E+00
(PID.TID 0000.0001)  ploadbar=  1.01154719414510E+05
 cg2d: Sum(rhs),rhsMax =  -5.71627053471612E+01  1.60096868151356E+00
(PID.TID 0000.0001)  ploadbar=  1.01153935713046E+05
 cg2d: Sum(rhs),rhsMax =  -5.71456794014769E+01  1.60251835440516E+00
(PID.TID 0000.0001)  ploadbar=  1.01153124097338E+05
 cg2d: Sum(rhs),rhsMax =  -5.71281900974234E+01  1.60411581256440E+00
(PID.TID 0000.0001)  ploadbar=  1.01152312481630E+05
 cg2d: Sum(rhs),rhsMax =  -5.71092124783302E+01  1.60579156238246E+00
(PID.TID 0000.0001)  ploadbar=  1.01151500865922E+05
 cg2d: Sum(rhs),rhsMax =  -5.70903364499961E+01  1.60750296543735E+00
(PID.TID 0000.0001)  ploadbar=  1.01150689250213E+05
 cg2d: Sum(rhs),rhsMax =  -5.70719171724517E+01  1.60923852100290E+00
(PID.TID 0000.0001)  ploadbar=  1.01149877634505E+05
 cg2d: Sum(rhs),rhsMax =  -5.70646013261044E+01  1.61069822700072E+00
(PID.TID 0000.0001)  ploadbar=  1.01149066018797E+05
 cg2d: Sum(rhs),rhsMax =  -5.70579878260880E+01  1.61203307042919E+00
(PID.TID 0000.0001)  ploadbar=  1.01148741382566E+05
 cg2d: Sum(rhs),rhsMax =  -5.70528609340981E+01  1.61322216307349E+00
(PID.TID 0000.0001)  ploadbar=  1.01148416746335E+05
 cg2d: Sum(rhs),rhsMax =  -5.70519843409482E+01  1.61419260356282E+00
(PID.TID 0000.0001)  ploadbar=  1.01148092110105E+05
 cg2d: Sum(rhs),rhsMax =  -5.70566603819316E+01  1.61491013275624E+00
(PID.TID 0000.0001)  ploadbar=  1.01147767473875E+05
 cg2d: Sum(rhs),rhsMax =  -5.70676018801215E+01  1.61535767469459E+00
(PID.TID 0000.0001)  ploadbar=  1.01147442837644E+05
 cg2d: Sum(rhs),rhsMax =  -5.70856537071189E+01  1.61551123077997E+00
(PID.TID 0000.0001)  ploadbar=  1.01147118201414E+05
 cg2d: Sum(rhs),rhsMax =  -5.71120657820790E+01  1.61547105929230E+00
(PID.TID 0000.0001)  ploadbar=  1.01146220524335E+05
 cg2d: Sum(rhs),rhsMax =  -5.71426836552003E+01  1.61535338805912E+00
(PID.TID 0000.0001)  ploadbar=  1.01145322847257E+05
 cg2d: Sum(rhs),rhsMax =  -5.71760271932083E+01  1.61520174213252E+00
(PID.TID 0000.0001)  ploadbar=  1.01144425170179E+05
 cg2d: Sum(rhs),rhsMax =  -5.72100161570127E+01  1.61507553074143E+00
(PID.TID 0000.0001)  ploadbar=  1.01143527493101E+05
 cg2d: Sum(rhs),rhsMax =  -5.72429956461418E+01  1.61502134248849E+00
(PID.TID 0000.0001)  ploadbar=  1.01142629816022E+05
 cg2d: Sum(rhs),rhsMax =  -5.72739637749608E+01  1.61506750056852E+00
(PID.TID 0000.0001)  ploadbar=  1.01141732138944E+05
 cg2d: Sum(rhs),rhsMax =  -5.72930016907984E+01  1.61540864556406E+00
(PID.TID 0000.0001)  ploadbar=  1.01141047470121E+05
 cg2d: Sum(rhs),rhsMax =  -5.73039633727817E+01  1.61594117501472E+00
(PID.TID 0000.0001)  ploadbar=  1.01140362801297E+05
 cg2d: Sum(rhs),rhsMax =  -5.73088998317733E+01  1.61661341230898E+00
(PID.TID 0000.0001)  ploadbar=  1.01139678132474E+05
 cg2d: Sum(rhs),rhsMax =  -5.73076450860311E+01  1.61743110583394E+00
(PID.TID 0000.0001)  ploadbar=  1.01138993463651E+05
 cg2d: Sum(rhs),rhsMax =  -5.73009935947491E+01  1.61837396838656E+00
(PID.TID 0000.0001)  ploadbar=  1.01138308794827E+05
 cg2d: Sum(rhs),rhsMax =  -5.72903251978391E+01  1.61940437598292E+00
(PID.TID 0000.0001)  ploadbar=  1.01137624126004E+05
 cg2d: Sum(rhs),rhsMax =  -5.72833102504017E+01  1.62038234005039E+00
(PID.TID 0000.0001)  ploadbar=  1.01136898945751E+05
 cg2d: Sum(rhs),rhsMax =  -5.72762149874838E+01  1.62141246735186E+00
(PID.TID 0000.0001)  ploadbar=  1.01136173765498E+05
 cg2d: Sum(rhs),rhsMax =  -5.72713468126987E+01  1.62243079570011E+00
(PID.TID 0000.0001)  ploadbar=  1.01135448585245E+05
 cg2d: Sum(rhs),rhsMax =  -5.72684771702105E+01  1.62344215620610E+00
(PID.TID 0000.0001)  ploadbar=  1.01134723404992E+05
 cg2d: Sum(rhs),rhsMax =  -5.72672413362506E+01  1.62445515075769E+00
(PID.TID 0000.0001)  ploadbar=  1.01133998224739E+05
 cg2d: Sum(rhs),rhsMax =  -5.72679609605300E+01  1.62545911024553E+00
(PID.TID 0000.0001)  ploadbar=  1.01133273044486E+05
 cg2d: Sum(rhs),rhsMax =  -5.72629813842206E+01  1.62653873860462E+00
(PID.TID 0000.0001)  ploadbar=  1.01132354929650E+05
 cg2d: Sum(rhs),rhsMax =  -5.72568552118595E+01  1.62756376493056E+00
(PID.TID 0000.0001)  ploadbar=  1.01131436814815E+05
 cg2d: Sum(rhs),rhsMax =  -5.72496944889780E+01  1.62853416725050E+00
(PID.TID 0000.0001)  ploadbar=  1.01130518699979E+05
 cg2d: Sum(rhs),rhsMax =  -5.72407449717433E+01  1.62947036124869E+00
(PID.TID 0000.0001)  ploadbar=  1.01129600585144E+05
 cg2d: Sum(rhs),rhsMax =  -5.72316657224550E+01  1.63032755844623E+00
(PID.TID 0000.0001)  ploadbar=  1.01128682470308E+05
 cg2d: Sum(rhs),rhsMax =  -5.72230791019058E+01  1.63108640294788E+00
(PID.TID 0000.0001)  ploadbar=  1.01127764355472E+05
 cg2d: Sum(rhs),rhsMax =  -5.72217161212965E+01  1.63171733190051E+00
(PID.TID 0000.0001)  ploadbar=  1.01126020878325E+05
 cg2d: Sum(rhs),rhsMax =  -5.72300033703222E+01  1.63215033796325E+00
(PID.TID 0000.0001)  ploadbar=  1.01124277401178E+05
 cg2d: Sum(rhs),rhsMax =  -5.72475151590097E+01  1.63239654666345E+00
(PID.TID 0000.0001)  ploadbar=  1.01122533924031E+05
 cg2d: Sum(rhs),rhsMax =  -5.72746017647214E+01  1.63244436477734E+00
(PID.TID 0000.0001)  ploadbar=  1.01120790446884E+05
 cg2d: Sum(rhs),rhsMax =  -5.73126003551447E+01  1.63225359034215E+00
(PID.TID 0000.0001)  ploadbar=  1.01119046969737E+05
 cg2d: Sum(rhs),rhsMax =  -5.73624387639710E+01  1.63179676440103E+00
(PID.TID 0000.0001)  ploadbar=  1.01117303492590E+05
 cg2d: Sum(rhs),rhsMax =  -5.74145191229180E+01  1.63123267361401E+00
(PID.TID 0000.0001)  ploadbar=  1.01116071988899E+05
 cg2d: Sum(rhs),rhsMax =  -5.74767556714061E+01  1.63033898643333E+00
(PID.TID 0000.0001)  ploadbar=  1.01114840485209E+05
 cg2d: Sum(rhs),rhsMax =  -5.75487676577686E+01  1.62912810298673E+00
(PID.TID 0000.0001)  ploadbar=  1.01113608981518E+05
 cg2d: Sum(rhs),rhsMax =  -5.76297865828841E+01  1.62762077383792E+00
(PID.TID 0000.0001)  ploadbar=  1.01112377477827E+05
 cg2d: Sum(rhs),rhsMax =  -5.77192412924761E+01  1.62583411911899E+00
(PID.TID 0000.0001)  ploadbar=  1.01111145974137E+05
 cg2d: Sum(rhs),rhsMax =  -5.78158728271888E+01  1.62380640244448E+00
(PID.TID 0000.0001)  ploadbar=  1.01109914470446E+05
 cg2d: Sum(rhs),rhsMax =  -5.79220650803910E+01  1.62157589718302E+00
(PID.TID 0000.0001)  ploadbar=  1.01106933136417E+05
 cg2d: Sum(rhs),rhsMax =  -5.80384395788827E+01  1.61912865375837E+00
(PID.TID 0000.0001)  ploadbar=  1.01103951802388E+05
 cg2d: Sum(rhs),rhsMax =  -5.81620566176143E+01  1.61654711355986E+00
(PID.TID 0000.0001)  ploadbar=  1.01100970468358E+05
 cg2d: Sum(rhs),rhsMax =  -5.82907993537291E+01  1.61388911430127E+00
(PID.TID 0000.0001)  ploadbar=  1.01097989134329E+05
 cg2d: Sum(rhs),rhsMax =  -5.84232715729854E+01  1.61118950683844E+00
(PID.TID 0000.0001)  ploadbar=  1.01095007800300E+05
 cg2d: Sum(rhs),rhsMax =  -5.85577883761359E+01  1.60849360944543E+00
(PID.TID 0000.0001)  ploadbar=  1.01092026466271E+05
 cg2d: Sum(rhs),rhsMax =  -5.86865300425845E+01  1.60587519421139E+00
(PID.TID 0000.0001)  ploadbar=  1.01090978275003E+05
 cg2d: Sum(rhs),rhsMax =  -5.88090421770032E+01  1.60334541835941E+00
(PID.TID 0000.0001)  ploadbar=  1.01089930083735E+05
 cg2d: Sum(rhs),rhsMax =  -5.89248695203121E+01  1.60091490274882E+00
(PID.TID 0000.0001)  ploadbar=  1.01088881892467E+05
 cg2d: Sum(rhs),rhsMax =  -5.90340240185107E+01  1.59858278268876E+00
(PID.TID 0000.0001)  ploadbar=  1.01087833701200E+05
 cg2d: Sum(rhs),rhsMax =  -5.91370944788287E+01  1.59633336269989E+00
(PID.TID 0000.0001)  ploadbar=  1.01086785509932E+05
 cg2d: Sum(rhs),rhsMax =  -5.92345867199950E+01  1.59415390224920E+00
(PID.TID 0000.0001)  ploadbar=  1.01085737318664E+05
 cg2d: Sum(rhs),rhsMax =  -5.93280581334767E+01  1.59216998309683E+00
(PID.TID 0000.0001)  ploadbar=  1.01085895827018E+05
 cg2d: Sum(rhs),rhsMax =  -5.94254930102545E+01  1.59016524914404E+00
(PID.TID 0000.0001)  ploadbar=  1.01086054335372E+05
 cg2d: Sum(rhs),rhsMax =  -5.95257368934837E+01  1.58816972385895E+00
(PID.TID 0000.0001)  ploadbar=  1.01086212843726E+05
 cg2d: Sum(rhs),rhsMax =  -5.96287962837677E+01  1.58618348655821E+00
(PID.TID 0000.0001)  ploadbar=  1.01086371352080E+05
 cg2d: Sum(rhs),rhsMax =  -5.97349996161459E+01  1.58419987142599E+00
(PID.TID 0000.0001)  ploadbar=  1.01086529860433E+05
 cg2d: Sum(rhs),rhsMax =  -5.98439941668310E+01  1.58222951083613E+00
(PID.TID 0000.0001)  ploadbar=  1.01086688368787E+05
 cg2d: Sum(rhs),rhsMax =  -5.99542824413328E+01  1.58022126045090E+00
(PID.TID 0000.0001)  ploadbar=  1.01085783940595E+05
 cg2d: Sum(rhs),rhsMax =  -6.00607526140582E+01  1.57831259340056E+00
(PID.TID 0000.0001)  ploadbar=  1.01084879512403E+05
 cg2d: Sum(rhs),rhsMax =  -6.01620335926693E+01  1.57654347212422E+00
(PID.TID 0000.0001)  ploadbar=  1.01083975084211E+05
 cg2d: Sum(rhs),rhsMax =  -6.02582801326501E+01  1.57491237006866E+00
(PID.TID 0000.0001)  ploadbar=  1.01083070656019E+05
 cg2d: Sum(rhs),rhsMax =  -6.03482290349446E+01  1.57345639714312E+00
(PID.TID 0000.0001)  ploadbar=  1.01082166227827E+05
 cg2d: Sum(rhs),rhsMax =  -6.04308602322232E+01  1.57220202843174E+00
(PID.TID 0000.0001)  ploadbar=  1.01081261799634E+05
 cg2d: Sum(rhs),rhsMax =  -6.05159096652739E+01  1.57092482358718E+00
(PID.TID 0000.0001)  ploadbar=  1.01079810517372E+05
 cg2d: Sum(rhs),rhsMax =  -6.05994613881252E+01  1.56972799147784E+00
(PID.TID 0000.0001)  ploadbar=  1.01078359235111E+05
 cg2d: Sum(rhs),rhsMax =  -6.06819233066375E+01  1.56859929015662E+00
(PID.TID 0000.0001)  ploadbar=  1.01076907952848E+05
 cg2d: Sum(rhs),rhsMax =  -6.07657272701201E+01  1.56747571410948E+00
(PID.TID 0000.0001)  ploadbar=  1.01075456670586E+05
 cg2d: Sum(rhs),rhsMax =  -6.08510421242057E+01  1.56635491187166E+00
(PID.TID 0000.0001)  ploadbar=  1.01074005388324E+05
 cg2d: Sum(rhs),rhsMax =  -6.09380379106991E+01  1.56523204780412E+00
(PID.TID 0000.0001)  ploadbar=  1.01072554106063E+05
 cg2d: Sum(rhs),rhsMax =  -6.10296268987925E+01  1.56389173709152E+00
(PID.TID 0000.0001)  ploadbar=  1.01071922237422E+05
 cg2d: Sum(rhs),rhsMax =  -6.11153043907303E+01  1.56260437356204E+00
(PID.TID 0000.0001)  ploadbar=  1.01071290368782E+05
 cg2d: Sum(rhs),rhsMax =  -6.11948481473239E+01  1.56137610393185E+00
(PID.TID 0000.0001)  ploadbar=  1.01070658500141E+05
 cg2d: Sum(rhs),rhsMax =  -6.12693845623914E+01  1.56017951808703E+00
(PID.TID 0000.0001)  ploadbar=  1.01070026631501E+05
 cg2d: Sum(rhs),rhsMax =  -6.13386902944211E+01  1.55902324003577E+00
(PID.TID 0000.0001)  ploadbar=  1.01069394762861E+05
 cg2d: Sum(rhs),rhsMax =  -6.14031525271970E+01  1.55789759642309E+00
(PID.TID 0000.0001)  ploadbar=  1.01068762894220E+05
 cg2d: Sum(rhs),rhsMax =  -6.14662836047201E+01  1.55688180654221E+00
(PID.TID 0000.0001)  ploadbar=  1.01068452414673E+05
 cg2d: Sum(rhs),rhsMax =  -6.14938592942348E+01  1.55684018990883E+00
(PID.TID 0000.0001)  ploadbar=  1.01068141935125E+05
 cg2d: Sum(rhs),rhsMax =  -6.06362471412308E+01  1.57959896110953E+00
(PID.TID 0000.0001)  ploadbar=  1.01067831455578E+05
 cg2d: Sum(rhs),rhsMax =  -5.98017633663732E+01  1.60246478781556E+00
(PID.TID 0000.0001)  ploadbar=  1.01067520976030E+05
 cg2d: Sum(rhs),rhsMax =  -5.89912883853435E+01  1.62539037467977E+00
(PID.TID 0000.0001)  ploadbar=  1.01067210496483E+05
 cg2d: Sum(rhs),rhsMax =  -5.82056115565415E+01  1.64832798763140E+00
(PID.TID 0000.0001)  ploadbar=  1.01066900016935E+05
 cg2d: Sum(rhs),rhsMax =  -5.74572898111543E+01  1.67078897437525E+00
(PID.TID 0000.0001)  ploadbar=  1.01067159477641E+05
 cg2d: Sum(rhs),rhsMax =  -5.67384060829028E+01  1.69294856308488E+00
(PID.TID 0000.0001)  ploadbar=  1.01067418938346E+05
 cg2d: Sum(rhs),rhsMax =  -5.60423279611505E+01  1.71496958819421E+00
(PID.TID 0000.0001)  ploadbar=  1.01067678399051E+05
 cg2d: Sum(rhs),rhsMax =  -5.53669726707592E+01  1.73688969036785E+00
(PID.TID 0000.0001)  ploadbar=  1.01067937859757E+05
 cg2d: Sum(rhs),rhsMax =  -5.47069481816800E+01  1.75885560491051E+00
(PID.TID 0000.0001)  ploadbar=  1.01068197320462E+05
 cg2d: Sum(rhs),rhsMax =  -5.40591167200466E+01  1.78095115914850E+00
(PID.TID 0000.0001)  ploadbar=  1.01068456781167E+05
 cg2d: Sum(rhs),rhsMax =  -5.34548985563267E+01  1.80220236375885E+00
(PID.TID 0000.0001)  ploadbar=  1.01068522016617E+05
 cg2d: Sum(rhs),rhsMax =  -5.28721342585889E+01  1.82328942676774E+00
(PID.TID 0000.0001)  ploadbar=  1.01068587252068E+05
 cg2d: Sum(rhs),rhsMax =  -5.23392727084689E+01  1.84318188676959E+00
(PID.TID 0000.0001)  ploadbar=  1.01068652487518E+05
 cg2d: Sum(rhs),rhsMax =  -5.18697468837377E+01  1.86130375661268E+00
(PID.TID 0000.0001)  ploadbar=  1.01068717722968E+05
 cg2d: Sum(rhs),rhsMax =  -5.14653049093430E+01  1.87747741818078E+00
(PID.TID 0000.0001)  ploadbar=  1.01068782958418E+05
 cg2d: Sum(rhs),rhsMax =  -5.11272910669790E+01  1.89154464625536E+00
(PID.TID 0000.0001)  ploadbar=  1.01068848193868E+05
 cg2d: Sum(rhs),rhsMax =  -5.08691260324349E+01  1.90266542611991E+00
(PID.TID 0000.0001)  ploadbar=  1.01069903721491E+05
 cg2d: Sum(rhs),rhsMax =  -5.06838298744048E+01  1.91100616619020E+00
(PID.TID 0000.0001)  ploadbar=  1.01070959249113E+05
 cg2d: Sum(rhs),rhsMax =  -5.05747773944585E+01  1.91637382687723E+00
(PID.TID 0000.0001)  ploadbar=  1.01072014776735E+05
 cg2d: Sum(rhs),rhsMax =  -5.05380004412821E+01  1.91887849445748E+00
(PID.TID 0000.0001)  ploadbar=  1.01073070304357E+05
 cg2d: Sum(rhs),rhsMax =  -5.05703941785679E+01  1.91862374362411E+00
(PID.TID 0000.0001)  ploadbar=  1.01074125831979E+05
 cg2d: Sum(rhs),rhsMax =  -5.06281573533836E+01  1.91727439943431E+00
(PID.TID 0000.0001)  ploadbar=  1.01075181359601E+05
 cg2d: Sum(rhs),rhsMax =  -5.07209690929158E+01  1.91465176198065E+00
(PID.TID 0000.0001)  ploadbar=  1.01077198514796E+05
 cg2d: Sum(rhs),rhsMax =  -5.10052121160980E+01  1.90490706788573E+00
(PID.TID 0000.0001)  ploadbar=  1.01079215669990E+05
 cg2d: Sum(rhs),rhsMax =  -5.14220548646680E+01  1.89042693843482E+00
(PID.TID 0000.0001)  ploadbar=  1.01081232825185E+05
 cg2d: Sum(rhs),rhsMax =  -5.19450761969347E+01  1.87238977206384E+00
(PID.TID 0000.0001)  ploadbar=  1.01083249980379E+05
 cg2d: Sum(rhs),rhsMax =  -5.25587548049679E+01  1.85155809262053E+00
(PID.TID 0000.0001)  ploadbar=  1.01085267135574E+05
 cg2d: Sum(rhs),rhsMax =  -5.32575801674075E+01  1.82832333605409E+00
(PID.TID 0000.0001)  ploadbar=  1.01087284290768E+05
 cg2d: Sum(rhs),rhsMax =  -5.39361493829874E+01  1.80631196872167E+00
(PID.TID 0000.0001)  ploadbar=  1.01088210007314E+05
 cg2d: Sum(rhs),rhsMax =  -5.45794454182627E+01  1.78594906021701E+00
(PID.TID 0000.0001)  ploadbar=  1.01089135723860E+05
 cg2d: Sum(rhs),rhsMax =  -5.51892451870465E+01  1.76708664616878E+00
(PID.TID 0000.0001)  ploadbar=  1.01090061440407E+05
 cg2d: Sum(rhs),rhsMax =  -5.57655787752476E+01  1.74964901394723E+00
(PID.TID 0000.0001)  ploadbar=  1.01090987156953E+05
 cg2d: Sum(rhs),rhsMax =  -5.63119896046666E+01  1.73345163753146E+00
(PID.TID 0000.0001)  ploadbar=  1.01091912873499E+05
 cg2d: Sum(rhs),rhsMax =  -5.68199713447135E+01  1.71868811893389E+00
(PID.TID 0000.0001)  ploadbar=  1.01092838590045E+05
 cg2d: Sum(rhs),rhsMax =  -5.72714434418271E+01  1.70593733400842E+00
(PID.TID 0000.0001)  ploadbar=  1.01093372586079E+05
 cg2d: Sum(rhs),rhsMax =  -5.76733222024605E+01  1.69491068420958E+00
(PID.TID 0000.0001)  ploadbar=  1.01093906582113E+05
 cg2d: Sum(rhs),rhsMax =  -5.81001856034841E+01  1.68338055378787E+00
(PID.TID 0000.0001)  ploadbar=  1.01094440578147E+05
 cg2d: Sum(rhs),rhsMax =  -5.85203579841679E+01  1.67227734330584E+00
(PID.TID 0000.0001)  ploadbar=  1.01094974574181E+05
 cg2d: Sum(rhs),rhsMax =  -5.89162754067358E+01  1.66208266718679E+00
(PID.TID 0000.0001)  ploadbar=  1.01095508570215E+05
 cg2d: Sum(rhs),rhsMax =  -5.92854634858906E+01  1.65283408056831E+00
(PID.TID 0000.0001)  ploadbar=  1.01096042566249E+05
 cg2d: Sum(rhs),rhsMax =  -5.96301951435418E+01  1.64430559189379E+00
(PID.TID 0000.0001)  ploadbar=  1.01096870673215E+05
 cg2d: Sum(rhs),rhsMax =  -5.99515244535898E+01  1.63644576947346E+00
(PID.TID 0000.0001)  ploadbar=  1.01097698780181E+05
 cg2d: Sum(rhs),rhsMax =  -6.02468643958030E+01  1.62930943783718E+00
(PID.TID 0000.0001)  ploadbar=  1.01098526887147E+05
 cg2d: Sum(rhs),rhsMax =  -6.05183009712348E+01  1.62282508912124E+00
(PID.TID 0000.0001)  ploadbar=  1.01099354994113E+05
 cg2d: Sum(rhs),rhsMax =  -6.07671456978720E+01  1.61694515942982E+00
(PID.TID 0000.0001)  ploadbar=  1.01100183101079E+05
 cg2d: Sum(rhs),rhsMax =  -6.09951090295444E+01  1.61161406506578E+00
(PID.TID 0000.0001)  ploadbar=  1.01101011208045E+05
 cg2d: Sum(rhs),rhsMax =  -6.11574972648678E+01  1.60809027833510E+00
(PID.TID 0000.0001)  ploadbar=  1.01102741562178E+05
 cg2d: Sum(rhs),rhsMax =  -6.13020027787252E+01  1.60509777719650E+00
(PID.TID 0000.0001)  ploadbar=  1.01104471916311E+05
 cg2d: Sum(rhs),rhsMax =  -6.14605095897152E+01  1.60179929166492E+00
(PID.TID 0000.0001)  ploadbar=  1.01106202270444E+05
 cg2d: Sum(rhs),rhsMax =  -6.16265295541222E+01  1.59836839209415E+00
(PID.TID 0000.0001)  ploadbar=  1.01107932624577E+05
 cg2d: Sum(rhs),rhsMax =  -6.17949926873895E+01  1.59493902165478E+00
(PID.TID 0000.0001)  ploadbar=  1.01109662978710E+05
 cg2d: Sum(rhs),rhsMax =  -6.19655754738945E+01  1.59152201636177E+00
(PID.TID 0000.0001)  ploadbar=  1.01111393332843E+05
 cg2d: Sum(rhs),rhsMax =  -6.21370379157725E+01  1.58808976273147E+00
(PID.TID 0000.0001)  ploadbar=  1.01111949743183E+05
 cg2d: Sum(rhs),rhsMax =  -6.23158404874015E+01  1.58448465874816E+00
(PID.TID 0000.0001)  ploadbar=  1.01112506153524E+05
 cg2d: Sum(rhs),rhsMax =  -6.25004167977289E+01  1.58075595019910E+00
(PID.TID 0000.0001)  ploadbar=  1.01113062563864E+05
 cg2d: Sum(rhs),rhsMax =  -6.26928267015621E+01  1.57685607851161E+00
(PID.TID 0000.0001)  ploadbar=  1.01113618974204E+05
 cg2d: Sum(rhs),rhsMax =  -6.28882411889081E+01  1.57291023868673E+00
(PID.TID 0000.0001)  ploadbar=  1.01114175384545E+05
 cg2d: Sum(rhs),rhsMax =  -6.30802058352588E+01  1.56908098993510E+00
(PID.TID 0000.0001)  ploadbar=  1.01114731794885E+05
 cg2d: Sum(rhs),rhsMax =  -6.32448765824025E+01  1.56599628235551E+00
(PID.TID 0000.0001)  ploadbar=  1.01114458854136E+05
 cg2d: Sum(rhs),rhsMax =  -6.34042712348766E+01  1.56310390243547E+00
(PID.TID 0000.0001)  ploadbar=  1.01114185913386E+05
 cg2d: Sum(rhs),rhsMax =  -6.35570815016239E+01  1.56043376516190E+00
(PID.TID 0000.0001)  ploadbar=  1.01113912972637E+05
 cg2d: Sum(rhs),rhsMax =  -6.37005420477058E+01  1.55805174013965E+00
(PID.TID 0000.0001)  ploadbar=  1.01113640031888E+05
 cg2d: Sum(rhs),rhsMax =  -6.38331251247039E+01  1.55599223456583E+00
(PID.TID 0000.0001)  ploadbar=  1.01113367091138E+05
 cg2d: Sum(rhs),rhsMax =  -6.39559364846026E+01  1.55422431041275E+00
(PID.TID 0000.0001)  ploadbar=  1.01113094150389E+05
 cg2d: Sum(rhs),rhsMax =  -6.40671287388024E+01  1.55267867457133E+00
(PID.TID 0000.0001)  ploadbar=  1.01112241067451E+05
 cg2d: Sum(rhs),rhsMax =  -6.41750692234903E+01  1.55115139775870E+00
(PID.TID 0000.0001)  ploadbar=  1.01111387984513E+05
 cg2d: Sum(rhs),rhsMax =  -6.42899636850380E+01  1.54939689151297E+00
(PID.TID 0000.0001)  ploadbar=  1.01110534901575E+05
 cg2d: Sum(rhs),rhsMax =  -6.44096651719964E+01  1.54746926323342E+00
(PID.TID 0000.0001)  ploadbar=  1.01109681818637E+05
 cg2d: Sum(rhs),rhsMax =  -6.45284877549506E+01  1.54550801580934E+00
(PID.TID 0000.0001)  ploadbar=  1.01108828735700E+05
 cg2d: Sum(rhs),rhsMax =  -6.46434747445028E+01  1.54358289783879E+00
(PID.TID 0000.0001)  ploadbar=  1.01107975652762E+05
 cg2d: Sum(rhs),rhsMax =  -6.47311350400407E+01  1.54238106758024E+00
(PID.TID 0000.0001)  ploadbar=  1.01107176299239E+05
 cg2d: Sum(rhs),rhsMax =  -6.48026179042944E+01  1.54163312769523E+00
(PID.TID 0000.0001)  ploadbar=  1.01106376945716E+05
 cg2d: Sum(rhs),rhsMax =  -6.48503592635912E+01  1.54151813715351E+00
(PID.TID 0000.0001)  ploadbar=  1.01105577592194E+05
 cg2d: Sum(rhs),rhsMax =  -6.48647338922367E+01  1.54226621398402E+00
(PID.TID 0000.0001)  ploadbar=  1.01104778238671E+05
 cg2d: Sum(rhs),rhsMax =  -6.48381724436694E+01  1.54405894690993E+00
(PID.TID 0000.0001)  ploadbar=  1.01103978885148E+05
 cg2d: Sum(rhs),rhsMax =  -6.47622715088722E+01  1.54710203986202E+00
(PID.TID 0000.0001)  ploadbar=  1.01103179531625E+05
 cg2d: Sum(rhs),rhsMax =  -6.46216164296658E+01  1.55165165621837E+00
(PID.TID 0000.0001)  ploadbar=  1.01102663006295E+05
 cg2d: Sum(rhs),rhsMax =  -6.44557462592710E+01  1.55678179560567E+00
(PID.TID 0000.0001)  ploadbar=  1.01102146480964E+05
 cg2d: Sum(rhs),rhsMax =  -6.42940130707293E+01  1.56179516428007E+00
(PID.TID 0000.0001)  ploadbar=  1.01101629955633E+05
 cg2d: Sum(rhs),rhsMax =  -6.41683435891908E+01  1.56591177674697E+00
(PID.TID 0000.0001)  ploadbar=  1.01101113430302E+05
 cg2d: Sum(rhs),rhsMax =  -6.38437368649060E+01  1.57489921381037E+00
(PID.TID 0000.0001)  ploadbar=  1.01100596904971E+05
 cg2d: Sum(rhs),rhsMax =  -6.35037135510958E+01  1.58432426546115E+00
(PID.TID 0000.0001)  ploadbar=  1.01100080379640E+05
 cg2d: Sum(rhs),rhsMax =  -6.31280986807256E+01  1.59480292690432E+00
(PID.TID 0000.0001)  ploadbar=  1.01099658312403E+05
 cg2d: Sum(rhs),rhsMax =  -6.26921716874220E+01  1.60700516041234E+00
(PID.TID 0000.0001)  ploadbar=  1.01099236245166E+05
 cg2d: Sum(rhs),rhsMax =  -6.09003232795670E+01  1.65548875938578E+00
(PID.TID 0000.0001)  ploadbar=  1.01098814177928E+05
 cg2d: Sum(rhs),rhsMax =  -5.89597660089869E+01  1.71127561154058E+00
(PID.TID 0000.0001)  ploadbar=  1.01098392110691E+05
 cg2d: Sum(rhs),rhsMax =  -5.72212323875051E+01  1.76466952516630E+00
(PID.TID 0000.0001)  ploadbar=  1.01097970043454E+05
 cg2d: Sum(rhs),rhsMax =  -5.56704598550856E+01  1.81533236949920E+00
(PID.TID 0000.0001)  ploadbar=  1.01097547976217E+05
 cg2d: Sum(rhs),rhsMax =  -5.43704276317255E+01  1.86022380861615E+00
(PID.TID 0000.0001)  ploadbar=  1.01096505994592E+05
 cg2d: Sum(rhs),rhsMax =  -5.31703392372742E+01  1.90367684157343E+00
(PID.TID 0000.0001)  ploadbar=  1.01095464012967E+05
 cg2d: Sum(rhs),rhsMax =  -5.20418206148913E+01  1.94640249538197E+00
(PID.TID 0000.0001)  ploadbar=  1.01094422031342E+05
 cg2d: Sum(rhs),rhsMax =  -5.09514025466321E+01  1.98948037783494E+00
(PID.TID 0000.0001)  ploadbar=  1.01093380049717E+05
 cg2d: Sum(rhs),rhsMax =  -4.98692880159600E+01  2.03405225348297E+00
(PID.TID 0000.0001)  ploadbar=  1.01092338068093E+05
 cg2d: Sum(rhs),rhsMax =  -4.88819151762868E+01  2.07651510751658E+00
(PID.TID 0000.0001)  ploadbar=  1.01091296086468E+05
 cg2d: Sum(rhs),rhsMax =  -4.81770312105958E+01  2.10834305876066E+00
(PID.TID 0000.0001)  ploadbar=  1.01091188720048E+05
 cg2d: Sum(rhs),rhsMax =  -4.77764352972188E+01  2.12752789445971E+00
(PID.TID 0000.0001)  ploadbar=  1.01091081353628E+05
 cg2d: Sum(rhs),rhsMax =  -4.76171850441508E+01  2.13620375991283E+00
(PID.TID 0000.0001)  ploadbar=  1.01090973987208E+05
 cg2d: Sum(rhs),rhsMax =  -4.80441409166227E+01  2.11881693094035E+00
(PID.TID 0000.0001)  ploadbar=  1.01090866620789E+05
 cg2d: Sum(rhs),rhsMax =  -4.92603518492842E+01  2.06810803759911E+00
(PID.TID 0000.0001)  ploadbar=  1.01090759254369E+05
 cg2d: Sum(rhs),rhsMax =  -5.03730379654297E+01  2.02403774984794E+00
(PID.TID 0000.0001)  ploadbar=  1.01090651887949E+05
 cg2d: Sum(rhs),rhsMax =  -5.13115797984003E+01  1.98854818092233E+00
(PID.TID 0000.0001)  ploadbar=  1.01091005796785E+05
 cg2d: Sum(rhs),rhsMax =  -5.21950684998888E+01  1.95635024795936E+00
(PID.TID 0000.0001)  ploadbar=  1.01091359705621E+05
 cg2d: Sum(rhs),rhsMax =  -5.30416850507057E+01  1.92652036233713E+00
(PID.TID 0000.0001)  ploadbar=  1.01091713614457E+05
 cg2d: Sum(rhs),rhsMax =  -5.38536342821569E+01  1.89881005746702E+00
(PID.TID 0000.0001)  ploadbar=  1.01092067523293E+05
 cg2d: Sum(rhs),rhsMax =  -5.20794753150088E+01  1.96483692159460E+00
(PID.TID 0000.0001)  ploadbar=  1.01092421432129E+05
 cg2d: Sum(rhs),rhsMax =  -5.07035946867649E+01  2.01949177496227E+00
(PID.TID 0000.0001)  ploadbar=  1.01092775340965E+05
 cg2d: Sum(rhs),rhsMax =  -5.01413452013195E+01  2.04352447710765E+00
(PID.TID 0000.0001)  ploadbar=  1.01093195952812E+05
 cg2d: Sum(rhs),rhsMax =  -5.02538490682572E+01  2.04036915684036E+00
(PID.TID 0000.0001)  ploadbar=  1.01093616564659E+05
 cg2d: Sum(rhs),rhsMax =  -5.09491162542162E+01  2.01396023935633E+00
(PID.TID 0000.0001)  ploadbar=  1.01094037176505E+05
 cg2d: Sum(rhs),rhsMax =  -5.17567457904096E+01  1.98397961730865E+00
(PID.TID 0000.0001)  ploadbar=  1.01094457788352E+05
 cg2d: Sum(rhs),rhsMax =  -5.25623121261690E+01  1.95503059999714E+00
(PID.TID 0000.0001)  ploadbar=  1.01094878400199E+05
 cg2d: Sum(rhs),rhsMax =  -5.33096506393162E+01  1.92909138835803E+00
(PID.TID 0000.0001)  ploadbar=  1.01095299012046E+05
 cg2d: Sum(rhs),rhsMax =  -5.39057074711524E+01  1.90913855542087E+00
(PID.TID 0000.0001)  ploadbar=  1.01094961351838E+05
 cg2d: Sum(rhs),rhsMax =  -5.44200282958158E+01  1.89238776514854E+00
(PID.TID 0000.0001)  ploadbar=  1.01094623691631E+05
 cg2d: Sum(rhs),rhsMax =  -5.48718372466324E+01  1.87801736985105E+00
(PID.TID 0000.0001)  ploadbar=  1.01094286031424E+05
 cg2d: Sum(rhs),rhsMax =  -5.52992547096765E+01  1.86463579476805E+00
(PID.TID 0000.0001)  ploadbar=  1.01093948371216E+05
 cg2d: Sum(rhs),rhsMax =  -5.57886312541675E+01  1.84933623780103E+00
(PID.TID 0000.0001)  ploadbar=  1.01093610711009E+05
 cg2d: Sum(rhs),rhsMax =  -5.63740933397451E+01  1.83110799814156E+00
(PID.TID 0000.0001)  ploadbar=  1.01093273050802E+05
 cg2d: Sum(rhs),rhsMax =  -5.70267573042803E+01  1.81116802970631E+00
(PID.TID 0000.0001)  ploadbar=  1.01094350026331E+05
 cg2d: Sum(rhs),rhsMax =  -5.76196829752094E+01  1.79358567960598E+00
(PID.TID 0000.0001)  ploadbar=  1.01095427001860E+05
 cg2d: Sum(rhs),rhsMax =  -5.71258362495064E+01  1.81020159053927E+00
(PID.TID 0000.0001)  ploadbar=  1.01096503977390E+05
 cg2d: Sum(rhs),rhsMax =  -5.67189188529718E+01  1.82435274006647E+00
(PID.TID 0000.0001)  ploadbar=  1.01097580952919E+05
 cg2d: Sum(rhs),rhsMax =  -5.64029135518996E+01  1.83579068364958E+00
(PID.TID 0000.0001)  ploadbar=  1.01098657928449E+05
 cg2d: Sum(rhs),rhsMax =  -5.61744845451316E+01  1.84452130570576E+00
(PID.TID 0000.0001)  ploadbar=  1.01099734903978E+05
 cg2d: Sum(rhs),rhsMax =  -5.59456298606188E+01  1.85331103765046E+00
(PID.TID 0000.0001)  ploadbar=  1.01099760582590E+05
 cg2d: Sum(rhs),rhsMax =  -5.57385334613971E+01  1.86142319711398E+00
(PID.TID 0000.0001)  ploadbar=  1.01099786261202E+05
 cg2d: Sum(rhs),rhsMax =  -5.55531590513906E+01  1.86884736478778E+00
(PID.TID 0000.0001)  ploadbar=  1.01099811939814E+05
 cg2d: Sum(rhs),rhsMax =  -5.53621193396409E+01  1.87649448202882E+00
(PID.TID 0000.0001)  ploadbar=  1.01099837618426E+05
 cg2d: Sum(rhs),rhsMax =  -5.51517059088984E+01  1.88483695281888E+00
(PID.TID 0000.0001)  ploadbar=  1.01099863297038E+05
 cg2d: Sum(rhs),rhsMax =  -5.49136041051391E+01  1.89417906884768E+00
(PID.TID 0000.0001)  ploadbar=  1.01099888975651E+05
 cg2d: Sum(rhs),rhsMax =  -5.46182022245128E+01  1.90563518722381E+00
(PID.TID 0000.0001)  ploadbar=  1.01099702918318E+05
 cg2d: Sum(rhs),rhsMax =  -5.42635899072417E+01  1.91934696802948E+00
(PID.TID 0000.0001)  ploadbar=  1.01099516860985E+05
 cg2d: Sum(rhs),rhsMax =  -5.38565384107401E+01  1.93516112245136E+00
(PID.TID 0000.0001)  ploadbar=  1.01099330803652E+05
 cg2d: Sum(rhs),rhsMax =  -5.34004106590334E+01  1.95304862349888E+00
(PID.TID 0000.0001)  ploadbar=  1.01099144746319E+05
 cg2d: Sum(rhs),rhsMax =  -5.28993880897023E+01  1.97295886458065E+00
(PID.TID 0000.0001)  ploadbar=  1.01098958688986E+05
 cg2d: Sum(rhs),rhsMax =  -5.23597562912888E+01  1.99476424535433E+00
(PID.TID 0000.0001)  ploadbar=  1.01098772631653E+05
 cg2d: Sum(rhs),rhsMax =  -5.18288716206264E+01  2.01663610235992E+00
(PID.TID 0000.0001)  ploadbar=  1.01099451948385E+05
 cg2d: Sum(rhs),rhsMax =  -5.12981323973512E+01  2.03890312156937E+00
(PID.TID 0000.0001)  ploadbar=  1.01100131265117E+05
 cg2d: Sum(rhs),rhsMax =  -5.07771208231887E+01  2.06119073969692E+00
(PID.TID 0000.0001)  ploadbar=  1.01100810581850E+05
 cg2d: Sum(rhs),rhsMax =  -5.03038334006069E+01  2.08191339368250E+00
(PID.TID 0000.0001)  ploadbar=  1.01101489898582E+05
 cg2d: Sum(rhs),rhsMax =  -4.99017460862460E+01  2.09997913644222E+00
(PID.TID 0000.0001)  ploadbar=  1.01102169215314E+05
 cg2d: Sum(rhs),rhsMax =  -4.95794441555848E+01  2.11487753163866E+00
(PID.TID 0000.0001)  ploadbar=  1.01102848532047E+05
 cg2d: Sum(rhs),rhsMax =  -4.93660053470317E+01  2.12533304297998E+00
(PID.TID 0000.0001)  ploadbar=  1.01103152329438E+05
 cg2d: Sum(rhs),rhsMax =  -4.92402721430244E+01  2.13213381070273E+00
(PID.TID 0000.0001)  ploadbar=  1.01103456126830E+05
 cg2d: Sum(rhs),rhsMax =  -4.91870947012825E+01  2.13587219457140E+00
(PID.TID 0000.0001)  ploadbar=  1.01103759924222E+05
 cg2d: Sum(rhs),rhsMax =  -4.92789566963326E+01  2.13337701851636E+00
(PID.TID 0000.0001)  ploadbar=  1.01104063721614E+05
 cg2d: Sum(rhs),rhsMax =  -4.95748310691709E+01  2.12217926109441E+00
(PID.TID 0000.0001)  ploadbar=  1.01104367519006E+05
 cg2d: Sum(rhs),rhsMax =  -5.00395766899796E+01  2.10404718231370E+00
(PID.TID 0000.0001)  ploadbar=  1.01104671316398E+05
 cg2d: Sum(rhs),rhsMax =  -5.04803754010180E+01  2.08723986006592E+00
(PID.TID 0000.0001)  ploadbar=  1.01104487671199E+05
 cg2d: Sum(rhs),rhsMax =  -5.09094493050774E+01  2.07120489542724E+00
(PID.TID 0000.0001)  ploadbar=  1.01104304026000E+05
 cg2d: Sum(rhs),rhsMax =  -5.13148865691969E+01  2.05639263638686E+00
(PID.TID 0000.0001)  ploadbar=  1.01104120380801E+05
 cg2d: Sum(rhs),rhsMax =  -5.16873146314980E+01  2.04312356479046E+00
(PID.TID 0000.0001)  ploadbar=  1.01103936735602E+05
 cg2d: Sum(rhs),rhsMax =  -5.20313291493364E+01  2.03116060203650E+00
(PID.TID 0000.0001)  ploadbar=  1.01103753090403E+05
 cg2d: Sum(rhs),rhsMax =  -5.23446257451020E+01  2.02054639892803E+00
(PID.TID 0000.0001)  ploadbar=  1.01103569445204E+05
 cg2d: Sum(rhs),rhsMax =  -5.26164957470995E+01  2.01168963055190E+00
(PID.TID 0000.0001)  ploadbar=  1.01103192413891E+05
 cg2d: Sum(rhs),rhsMax =  -5.28672196495057E+01  2.00377302284499E+00
(PID.TID 0000.0001)  ploadbar=  1.01102815382579E+05
 cg2d: Sum(rhs),rhsMax =  -5.30961283601698E+01  1.99679900085890E+00
(PID.TID 0000.0001)  ploadbar=  1.01102438351266E+05
 cg2d: Sum(rhs),rhsMax =  -5.33065007397205E+01  1.99062159224162E+00
(PID.TID 0000.0001)  ploadbar=  1.01102061319953E+05
 cg2d: Sum(rhs),rhsMax =  -5.34982537283203E+01  1.98522821100492E+00
(PID.TID 0000.0001)  ploadbar=  1.01101684288641E+05
 cg2d: Sum(rhs),rhsMax =  -5.36745212799703E+01  1.98048811855955E+00
(PID.TID 0000.0001)  ploadbar=  1.01101307257328E+05
 cg2d: Sum(rhs),rhsMax =  -5.38149078272170E+01  1.97699672022805E+00
(PID.TID 0000.0001)  ploadbar=  1.01100994505835E+05
 cg2d: Sum(rhs),rhsMax =  -5.39519586710156E+01  1.97354525203241E+00
(PID.TID 0000.0001)  ploadbar=  1.01100681754343E+05
 cg2d: Sum(rhs),rhsMax =  -5.40828960104197E+01  1.97023514029531E+00
(PID.TID 0000.0001)  ploadbar=  1.01100369002850E+05
 cg2d: Sum(rhs),rhsMax =  -5.42092944070727E+01  1.96700674540499E+00
(PID.TID 0000.0001)  ploadbar=  1.01100056251357E+05
 cg2d: Sum(rhs),rhsMax =  -5.43303333741660E+01  1.96388822958883E+00
(PID.TID 0000.0001)  ploadbar=  1.01099743499864E+05
 cg2d: Sum(rhs),rhsMax =  -5.44441043570552E+01  1.96094354681356E+00
(PID.TID 0000.0001)  ploadbar=  1.01099430748372E+05
 cg2d: Sum(rhs),rhsMax =  -5.45719040928138E+01  1.95754069664554E+00
(PID.TID 0000.0001)  ploadbar=  1.01099674921917E+05
 cg2d: Sum(rhs),rhsMax =  -5.47034929899917E+01  1.95405022099333E+00
(PID.TID 0000.0001)  ploadbar=  1.01099919095463E+05
 cg2d: Sum(rhs),rhsMax =  -5.48387145259136E+01  1.95047996317685E+00
(PID.TID 0000.0001)  ploadbar=  1.01100163269008E+05
 cg2d: Sum(rhs),rhsMax =  -5.49759578185858E+01  1.94688982812262E+00
(PID.TID 0000.0001)  ploadbar=  1.01100407442554E+05
 cg2d: Sum(rhs),rhsMax =  -5.51161616503145E+01  1.94324495956951E+00
(PID.TID 0000.0001)  ploadbar=  1.01100651616100E+05
 cg2d: Sum(rhs),rhsMax =  -5.52599831359871E+01  1.93952510951247E+00
(PID.TID 0000.0001)  ploadbar=  1.01100895789645E+05
 cg2d: Sum(rhs),rhsMax =  -5.53770425806573E+01  1.93674211539835E+00
(PID.TID 0000.0001)  ploadbar=  1.01100607174327E+05
 cg2d: Sum(rhs),rhsMax =  -5.54993452341678E+01  1.93377381533952E+00
(PID.TID 0000.0001)  ploadbar=  1.01100318559010E+05
 cg2d: Sum(rhs),rhsMax =  -5.56269457683424E+01  1.93062203765024E+00
(PID.TID 0000.0001)  ploadbar=  1.01100029943692E+05
 cg2d: Sum(rhs),rhsMax =  -5.57574377742869E+01  1.92737331595246E+00
(PID.TID 0000.0001)  ploadbar=  1.01099741328375E+05
 cg2d: Sum(rhs),rhsMax =  -5.58896072697040E+01  1.92406927371531E+00
(PID.TID 0000.0001)  ploadbar=  1.01099452713057E+05
 cg2d: Sum(rhs),rhsMax =  -5.60209131229054E+01  1.92079561362627E+00
(PID.TID 0000.0001)  ploadbar=  1.01099164097739E+05
 cg2d: Sum(rhs),rhsMax =  -5.61437189968699E+01  1.91785762161846E+00
(PID.TID 0000.0001)  ploadbar=  1.01098499160666E+05
 cg2d: Sum(rhs),rhsMax =  -5.62640766538531E+01  1.91505065119409E+00
(PID.TID 0000.0001)  ploadbar=  1.01097834223592E+05
 cg2d: Sum(rhs),rhsMax =  -5.63885467684925E+01  1.91215129874773E+00
(PID.TID 0000.0001)  ploadbar=  1.01097169286519E+05
 cg2d: Sum(rhs),rhsMax =  -5.65113740539605E+01  1.90935267389777E+00
(PID.TID 0000.0001)  ploadbar=  1.01096504349445E+05
 cg2d: Sum(rhs),rhsMax =  -5.66304188364764E+01  1.90672416630432E+00
(PID.TID 0000.0001)  ploadbar=  1.01095839412372E+05
 cg2d: Sum(rhs),rhsMax =  -5.67438405592560E+01  1.90432413640436E+00
(PID.TID 0000.0001)  ploadbar=  1.01095174475298E+05
 cg2d: Sum(rhs),rhsMax =  -5.68591413663658E+01  1.90181056900395E+00
(PID.TID 0000.0001)  ploadbar=  1.01094349269527E+05
 cg2d: Sum(rhs),rhsMax =  -5.69575824008024E+01  1.89980799551906E+00
(PID.TID 0000.0001)  ploadbar=  1.01093524063756E+05
 cg2d: Sum(rhs),rhsMax =  -5.70441789466808E+01  1.89814414908210E+00
(PID.TID 0000.0001)  ploadbar=  1.01092698857985E+05
 cg2d: Sum(rhs),rhsMax =  -5.71159560376515E+01  1.89691430836745E+00
(PID.TID 0000.0001)  ploadbar=  1.01091873652214E+05
 cg2d: Sum(rhs),rhsMax =  -5.71701505540944E+01  1.89620586287659E+00
(PID.TID 0000.0001)  ploadbar=  1.01091048446443E+05
 cg2d: Sum(rhs),rhsMax =  -5.72081570665296E+01  1.89597102277008E+00
(PID.TID 0000.0001)  ploadbar=  1.01090223240672E+05
 cg2d: Sum(rhs),rhsMax =  -5.72531950083184E+01  1.89553517090624E+00
(PID.TID 0000.0001)  ploadbar=  1.01089888669173E+05
 cg2d: Sum(rhs),rhsMax =  -5.72925482395661E+01  1.89531787511575E+00
(PID.TID 0000.0001)  ploadbar=  1.01089554097673E+05
 cg2d: Sum(rhs),rhsMax =  -5.73338888830684E+01  1.89506482897760E+00
(PID.TID 0000.0001)  ploadbar=  1.01089219526174E+05
 cg2d: Sum(rhs),rhsMax =  -5.73773566344533E+01  1.89476894820825E+00
(PID.TID 0000.0001)  ploadbar=  1.01088884954674E+05
 cg2d: Sum(rhs),rhsMax =  -5.74204621827242E+01  1.89451264530900E+00
(PID.TID 0000.0001)  ploadbar=  1.01088550383174E+05
 cg2d: Sum(rhs),rhsMax =  -5.74630359758522E+01  1.89430203130262E+00
(PID.TID 0000.0001)  ploadbar=  1.01088215811675E+05
 cg2d: Sum(rhs),rhsMax =  -5.74872973259598E+01  1.89470743288854E+00
(PID.TID 0000.0001)  ploadbar=  1.01087936964859E+05
 cg2d: Sum(rhs),rhsMax =  -5.75162338906573E+01  1.89497231217651E+00
(PID.TID 0000.0001)  ploadbar=  1.01087658118044E+05
 cg2d: Sum(rhs),rhsMax =  -5.75481282055700E+01  1.89515346838446E+00
(PID.TID 0000.0001)  ploadbar=  1.01087379271228E+05
 cg2d: Sum(rhs),rhsMax =  -5.75888208617872E+01  1.89505722288727E+00
(PID.TID 0000.0001)  ploadbar=  1.01087100424412E+05
 cg2d: Sum(rhs),rhsMax =  -5.76389877009873E+01  1.89465996248763E+00
(PID.TID 0000.0001)  ploadbar=  1.01086821577597E+05
 cg2d: Sum(rhs),rhsMax =  -5.76974799940602E+01  1.89399837540774E+00
(PID.TID 0000.0001)  ploadbar=  1.01086542730781E+05
 cg2d: Sum(rhs),rhsMax =  -5.77794154910521E+01  1.89257081284801E+00
(PID.TID 0000.0001)  ploadbar=  1.01086381754447E+05
 cg2d: Sum(rhs),rhsMax =  -5.76498326556402E+01  1.89808797731112E+00
(PID.TID 0000.0001)  ploadbar=  1.01086220778112E+05
 cg2d: Sum(rhs),rhsMax =  -5.74697170902849E+01  1.90530783656699E+00
(PID.TID 0000.0001)  ploadbar=  1.01086059801778E+05
 cg2d: Sum(rhs),rhsMax =  -5.73169122905171E+01  1.91166713683510E+00
(PID.TID 0000.0001)  ploadbar=  1.01085898825444E+05
 cg2d: Sum(rhs),rhsMax =  -5.71919426404174E+01  1.91713093754855E+00
(PID.TID 0000.0001)  ploadbar=  1.01085737849110E+05
 cg2d: Sum(rhs),rhsMax =  -5.70889978002794E+01  1.92188042591876E+00
(PID.TID 0000.0001)  ploadbar=  1.01085576872775E+05
 cg2d: Sum(rhs),rhsMax =  -5.70787657090520E+01  1.92345237804070E+00
(PID.TID 0000.0001)  ploadbar=  1.01085449877288E+05
 cg2d: Sum(rhs),rhsMax =  -5.71140155317953E+01  1.92342507786330E+00
(PID.TID 0000.0001)  ploadbar=  1.01085322881802E+05
 cg2d: Sum(rhs),rhsMax =  -5.70577732536522E+01  1.92641325516602E+00
(PID.TID 0000.0001)  ploadbar=  1.01085195886315E+05
 cg2d: Sum(rhs),rhsMax =  -5.69774464105461E+01  1.93015253224058E+00
(PID.TID 0000.0001)  ploadbar=  1.01085068890828E+05
 cg2d: Sum(rhs),rhsMax =  -5.69527889276461E+01  1.93194206364500E+00
(PID.TID 0000.0001)  ploadbar=  1.01084941895342E+05
 cg2d: Sum(rhs),rhsMax =  -5.69900003207659E+01  1.93156265498260E+00
(PID.TID 0000.0001)  ploadbar=  1.01084814899855E+05
 cg2d: Sum(rhs),rhsMax =  -5.70717443294927E+01  1.92972185437300E+00
(PID.TID 0000.0001)  ploadbar=  1.01085351689917E+05
 cg2d: Sum(rhs),rhsMax =  -5.71777279199871E+01  1.92711140899928E+00
(PID.TID 0000.0001)  ploadbar=  1.01085888479979E+05
 cg2d: Sum(rhs),rhsMax =  -5.72946142664585E+01  1.92418652015245E+00
(PID.TID 0000.0001)  ploadbar=  1.01086425270041E+05
 cg2d: Sum(rhs),rhsMax =  -5.74344197604248E+01  1.92054644291122E+00
(PID.TID 0000.0001)  ploadbar=  1.01086962060103E+05
 cg2d: Sum(rhs),rhsMax =  -5.75980342743534E+01  1.91617258318605E+00
(PID.TID 0000.0001)  ploadbar=  1.01087498850165E+05
 cg2d: Sum(rhs),rhsMax =  -5.77691538934869E+01  1.91161618400468E+00
(PID.TID 0000.0001)  ploadbar=  1.01088035640227E+05
 cg2d: Sum(rhs),rhsMax =  -5.79933624054739E+01  1.90531391865484E+00
(PID.TID 0000.0001)  ploadbar=  1.01088175427335E+05
 cg2d: Sum(rhs),rhsMax =  -5.82349401612477E+01  1.89846793568041E+00
(PID.TID 0000.0001)  ploadbar=  1.01088315214443E+05
 cg2d: Sum(rhs),rhsMax =  -5.85260731600140E+01  1.89005003465312E+00
(PID.TID 0000.0001)  ploadbar=  1.01088455001552E+05
 cg2d: Sum(rhs),rhsMax =  -5.88642714205828E+01  1.88018395573156E+00
(PID.TID 0000.0001)  ploadbar=  1.01088594788660E+05
 cg2d: Sum(rhs),rhsMax =  -5.92349633466372E+01  1.86937578871844E+00
(PID.TID 0000.0001)  ploadbar=  1.01088734575768E+05
 cg2d: Sum(rhs),rhsMax =  -5.95176996744718E+01  1.86141971524342E+00
(PID.TID 0000.0001)  ploadbar=  1.01088874362877E+05
 cg2d: Sum(rhs),rhsMax =  -5.95654470193907E+01  1.86085322141109E+00
(PID.TID 0000.0001)  ploadbar=  1.01088904338860E+05
 cg2d: Sum(rhs),rhsMax =  -5.96091467190030E+01  1.86041746974798E+00
(PID.TID 0000.0001)  ploadbar=  1.01088934314843E+05
 cg2d: Sum(rhs),rhsMax =  -5.96499612822460E+01  1.86007594906472E+00
(PID.TID 0000.0001)  ploadbar=  1.01088964290827E+05
 cg2d: Sum(rhs),rhsMax =  -5.96883867662485E+01  1.85981214443322E+00
(PID.TID 0000.0001)  ploadbar=  1.01088994266810E+05
 cg2d: Sum(rhs),rhsMax =  -5.97229824074467E+01  1.85966777133324E+00
(PID.TID 0000.0001)  ploadbar=  1.01089024242793E+05
 cg2d: Sum(rhs),rhsMax =  -5.97535226385214E+01  1.85964757253751E+00
(PID.TID 0000.0001)  ploadbar=  1.01089054218776E+05
 cg2d: Sum(rhs),rhsMax =  -5.97931997265355E+01  1.85930023008876E+00
(PID.TID 0000.0001)  ploadbar=  1.01088589613326E+05
 cg2d: Sum(rhs),rhsMax =  -5.98259877570957E+01  1.85912279461417E+00
(PID.TID 0000.0001)  ploadbar=  1.01088125007875E+05
 cg2d: Sum(rhs),rhsMax =  -5.98524989373761E+01  1.85909441950981E+00
(PID.TID 0000.0001)  ploadbar=  1.01087660402425E+05
 cg2d: Sum(rhs),rhsMax =  -5.98756162288866E+01  1.85912577666505E+00
(PID.TID 0000.0001)  ploadbar=  1.01087195796975E+05
 cg2d: Sum(rhs),rhsMax =  -5.98946409499308E+01  1.85923700044975E+00
(PID.TID 0000.0001)  ploadbar=  1.01086731191524E+05
 cg2d: Sum(rhs),rhsMax =  -5.99100088840748E+01  1.85941362704304E+00
(PID.TID 0000.0001)  ploadbar=  1.01086266586074E+05
 cg2d: Sum(rhs),rhsMax =  -5.98961130738922E+01  1.86055260768976E+00
(PID.TID 0000.0001)  ploadbar=  1.01085945704678E+05
 cg2d: Sum(rhs),rhsMax =  -5.98795505542871E+01  1.86182776916034E+00
(PID.TID 0000.0001)  ploadbar=  1.01085624823282E+05
 cg2d: Sum(rhs),rhsMax =  -5.98561811333327E+01  1.86336688416784E+00
(PID.TID 0000.0001)  ploadbar=  1.01085303941887E+05
 cg2d: Sum(rhs),rhsMax =  -5.98254362656035E+01  1.86518325917782E+00
(PID.TID 0000.0001)  ploadbar=  1.01084983060491E+05
 cg2d: Sum(rhs),rhsMax =  -5.97896503891039E+01  1.86720346617337E+00
(PID.TID 0000.0001)  ploadbar=  1.01084662179095E+05
 cg2d: Sum(rhs),rhsMax =  -5.97486310890047E+01  1.86943296722478E+00
(PID.TID 0000.0001)  ploadbar=  1.01084341297700E+05
 cg2d: Sum(rhs),rhsMax =  -5.97238734998520E+01  1.87117793250556E+00
(PID.TID 0000.0001)  ploadbar=  1.01084053085826E+05
 cg2d: Sum(rhs),rhsMax =  -5.96957330394272E+01  1.87305366114249E+00
(PID.TID 0000.0001)  ploadbar=  1.01083764873953E+05
 cg2d: Sum(rhs),rhsMax =  -5.96638592988629E+01  1.87507388881548E+00
(PID.TID 0000.0001)  ploadbar=  1.01083476662079E+05
 cg2d: Sum(rhs),rhsMax =  -5.96270788424767E+01  1.87727899053562E+00
(PID.TID 0000.0001)  ploadbar=  1.01083188450206E+05
 cg2d: Sum(rhs),rhsMax =  -5.95867480501570E+01  1.87962551852381E+00
(PID.TID 0000.0001)  ploadbar=  1.01082900238332E+05
 cg2d: Sum(rhs),rhsMax =  -5.95449993120666E+01  1.88204451813421E+00
(PID.TID 0000.0001)  ploadbar=  1.01082612026459E+05
 cg2d: Sum(rhs),rhsMax =  -5.94895491846798E+01  1.88492161699815E+00
(PID.TID 0000.0001)  ploadbar=  1.01083405504850E+05
 cg2d: Sum(rhs),rhsMax =  -5.94330923034943E+01  1.88785816828254E+00
(PID.TID 0000.0001)  ploadbar=  1.01084198983242E+05
 cg2d: Sum(rhs),rhsMax =  -5.93837507622720E+01  1.89059873312477E+00
(PID.TID 0000.0001)  ploadbar=  1.01084992461634E+05
 cg2d: Sum(rhs),rhsMax =  -5.93364756919063E+01  1.89330271792804E+00
(PID.TID 0000.0001)  ploadbar=  1.01085785940026E+05
 cg2d: Sum(rhs),rhsMax =  -5.92899019235998E+01  1.89601248911954E+00
(PID.TID 0000.0001)  ploadbar=  1.01086579418418E+05
 cg2d: Sum(rhs),rhsMax =  -5.92445955038614E+01  1.89870943562907E+00
(PID.TID 0000.0001)  ploadbar=  1.01087372896810E+05
 cg2d: Sum(rhs),rhsMax =  -5.92118272249734E+01  1.90093437017951E+00
(PID.TID 0000.0001)  ploadbar=  1.01086918346469E+05
 cg2d: Sum(rhs),rhsMax =  -5.91799113779473E+01  1.90306240491338E+00
(PID.TID 0000.0001)  ploadbar=  1.01086463796128E+05
 cg2d: Sum(rhs),rhsMax =  -5.91461968110090E+01  1.90518025352099E+00
(PID.TID 0000.0001)  ploadbar=  1.01086009245787E+05
 cg2d: Sum(rhs),rhsMax =  -5.91146545076724E+01  1.90715650743304E+00
(PID.TID 0000.0001)  ploadbar=  1.01085554695446E+05
 cg2d: Sum(rhs),rhsMax =  -5.90875252175042E+01  1.90892123875034E+00
(PID.TID 0000.0001)  ploadbar=  1.01085100145105E+05
 cg2d: Sum(rhs),rhsMax =  -5.90662001789182E+01  1.91042863159700E+00
(PID.TID 0000.0001)  ploadbar=  1.01084645594764E+05
 cg2d: Sum(rhs),rhsMax =  -5.90423837532860E+01  1.91204510223834E+00
(PID.TID 0000.0001)  ploadbar=  1.01085997886423E+05
 cg2d: Sum(rhs),rhsMax =  -5.90289141282154E+01  1.91335517898452E+00
(PID.TID 0000.0001)  ploadbar=  1.01087350178082E+05
 cg2d: Sum(rhs),rhsMax =  -5.90272166847593E+01  1.91430863571106E+00
(PID.TID 0000.0001)  ploadbar=  1.01088702469740E+05
 cg2d: Sum(rhs),rhsMax =  -5.90402814875143E+01  1.91480928266811E+00
(PID.TID 0000.0001)  ploadbar=  1.01090054761399E+05
 cg2d: Sum(rhs),rhsMax =  -5.90706736225850E+01  1.91477731871454E+00
(PID.TID 0000.0001)  ploadbar=  1.01091407053058E+05
 cg2d: Sum(rhs),rhsMax =  -5.91200743795839E+01  1.91415848371607E+00
(PID.TID 0000.0001)  ploadbar=  1.01092759344716E+05
 cg2d: Sum(rhs),rhsMax =  -5.91923126987688E+01  1.91282826241801E+00
(PID.TID 0000.0001)  ploadbar=  1.01093362655728E+05
 cg2d: Sum(rhs),rhsMax =  -5.92833345379346E+01  1.91092466896533E+00
(PID.TID 0000.0001)  ploadbar=  1.01093965966740E+05
 cg2d: Sum(rhs),rhsMax =  -5.93969167129392E+01  1.90833142993901E+00
(PID.TID 0000.0001)  ploadbar=  1.01094569277752E+05
 cg2d: Sum(rhs),rhsMax =  -5.95307892173022E+01  1.90512584148068E+00
(PID.TID 0000.0001)  ploadbar=  1.01095172588764E+05
 cg2d: Sum(rhs),rhsMax =  -5.96827369413525E+01  1.90138574465032E+00
(PID.TID 0000.0001)  ploadbar=  1.01095775899776E+05
 cg2d: Sum(rhs),rhsMax =  -5.98514142509635E+01  1.89715911497302E+00
(PID.TID 0000.0001)  ploadbar=  1.01096379210788E+05
 cg2d: Sum(rhs),rhsMax =  -6.00552941249551E+01  1.89183495445195E+00
(PID.TID 0000.0001)  ploadbar=  1.01096243348169E+05
 cg2d: Sum(rhs),rhsMax =  -6.02671487439823E+01  1.88628999411687E+00
(PID.TID 0000.0001)  ploadbar=  1.01096107485549E+05
 cg2d: Sum(rhs),rhsMax =  -6.04901062918112E+01  1.88042980021537E+00
(PID.TID 0000.0001)  ploadbar=  1.01095971622930E+05
 cg2d: Sum(rhs),rhsMax =  -6.07227808520127E+01  1.87430314599592E+00
(PID.TID 0000.0001)  ploadbar=  1.01095835760311E+05
 cg2d: Sum(rhs),rhsMax =  -6.09606085082674E+01  1.86805439315669E+00
(PID.TID 0000.0001)  ploadbar=  1.01095699897691E+05
 cg2d: Sum(rhs),rhsMax =  -6.12023470503335E+01  1.86172308771668E+00
(PID.TID 0000.0001)  ploadbar=  1.01095564035072E+05
 cg2d: Sum(rhs),rhsMax =  -6.14235974668871E+01  1.85601381289738E+00
(PID.TID 0000.0001)  ploadbar=  1.01096010581509E+05
 cg2d: Sum(rhs),rhsMax =  -6.16478887480306E+01  1.85020829544524E+00
(PID.TID 0000.0001)  ploadbar=  1.01096457127947E+05
 cg2d: Sum(rhs),rhsMax =  -6.18755830845015E+01  1.84429661016063E+00
(PID.TID 0000.0001)  ploadbar=  1.01096903674385E+05
 cg2d: Sum(rhs),rhsMax =  -6.21079698142119E+01  1.83824310579994E+00
(PID.TID 0000.0001)  ploadbar=  1.01097350220823E+05
 cg2d: Sum(rhs),rhsMax =  -6.23450591070436E+01  1.83205034529298E+00
(PID.TID 0000.0001)  ploadbar=  1.01097796767261E+05
 cg2d: Sum(rhs),rhsMax =  -6.25870651732697E+01  1.82571515903135E+00
(PID.TID 0000.0001)  ploadbar=  1.01098243313698E+05
 cg2d: Sum(rhs),rhsMax =  -6.28386704444096E+01  1.81918282203184E+00
(PID.TID 0000.0001)  ploadbar=  1.01098912385173E+05
 cg2d: Sum(rhs),rhsMax =  -6.30864113963701E+01  1.81284566743623E+00
(PID.TID 0000.0001)  ploadbar=  1.01099581456648E+05
 cg2d: Sum(rhs),rhsMax =  -6.33254017106522E+01  1.80683965775680E+00
(PID.TID 0000.0001)  ploadbar=  1.01100250528122E+05
 cg2d: Sum(rhs),rhsMax =  -6.35566191941589E+01  1.80113066840065E+00
(PID.TID 0000.0001)  ploadbar=  1.01100919599597E+05
 cg2d: Sum(rhs),rhsMax =  -6.37785007459329E+01  1.79575679467809E+00
(PID.TID 0000.0001)  ploadbar=  1.01101588671072E+05
 cg2d: Sum(rhs),rhsMax =  -6.39904563269728E+01  1.79072654945363E+00
(PID.TID 0000.0001)  ploadbar=  1.01102257742546E+05
 cg2d: Sum(rhs),rhsMax =  -6.42109651070928E+01  1.78549870439293E+00
(PID.TID 0000.0001)  ploadbar=  1.01102599485315E+05
 cg2d: Sum(rhs),rhsMax =  -6.44214153522602E+01  1.78059206622948E+00
(PID.TID 0000.0001)  ploadbar=  1.01102941228084E+05
 cg2d: Sum(rhs),rhsMax =  -6.46216353025309E+01  1.77600751644678E+00
(PID.TID 0000.0001)  ploadbar=  1.01103282970853E+05
 cg2d: Sum(rhs),rhsMax =  -6.48142030901393E+01  1.77166768516250E+00
(PID.TID 0000.0001)  ploadbar=  1.01103624713622E+05
 cg2d: Sum(rhs),rhsMax =  -6.50006332729956E+01  1.76752489826193E+00
(PID.TID 0000.0001)  ploadbar=  1.01103966456391E+05
 cg2d: Sum(rhs),rhsMax =  -6.51813711942333E+01  1.76356143072438E+00
(PID.TID 0000.0001)  ploadbar=  1.01104308199159E+05
 cg2d: Sum(rhs),rhsMax =  -6.53544122655600E+01  1.75982892124825E+00
(PID.TID 0000.0001)  ploadbar=  1.01105139929419E+05
 cg2d: Sum(rhs),rhsMax =  -6.55229855957857E+01  1.75623734810486E+00
(PID.TID 0000.0001)  ploadbar=  1.01105971659679E+05
 cg2d: Sum(rhs),rhsMax =  -6.56867773744241E+01  1.75279056776404E+00
(PID.TID 0000.0001)  ploadbar=  1.01106803389939E+05
 cg2d: Sum(rhs),rhsMax =  -6.58448059306467E+01  1.74951187170395E+00
(PID.TID 0000.0001)  ploadbar=  1.01107635120199E+05
 cg2d: Sum(rhs),rhsMax =  -6.59991643964397E+01  1.74634194229653E+00
(PID.TID 0000.0001)  ploadbar=  1.01108466850459E+05
 cg2d: Sum(rhs),rhsMax =  -6.61512258281675E+01  1.74324020572411E+00
(PID.TID 0000.0001)  ploadbar=  1.01109298580719E+05
 cg2d: Sum(rhs),rhsMax =  -6.62739804923724E+01  1.74088161481103E+00
(PID.TID 0000.0001)  ploadbar=  1.01109517227604E+05
 cg2d: Sum(rhs),rhsMax =  -6.63977203294337E+01  1.73846478294254E+00
(PID.TID 0000.0001)  ploadbar=  1.01109735874489E+05
 cg2d: Sum(rhs),rhsMax =  -6.65217710221620E+01  1.73600741852563E+00
(PID.TID 0000.0001)  ploadbar=  1.01109954521374E+05
 cg2d: Sum(rhs),rhsMax =  -6.66436510914910E+01  1.73357401547695E+00
(PID.TID 0000.0001)  ploadbar=  1.01110173168259E+05
 cg2d: Sum(rhs),rhsMax =  -6.67636178989668E+01  1.73115670921100E+00
(PID.TID 0000.0001)  ploadbar=  1.01110391815145E+05
 cg2d: Sum(rhs),rhsMax =  -6.68820194733958E+01  1.72874389661941E+00
(PID.TID 0000.0001)  ploadbar=  1.01110610462030E+05
 cg2d: Sum(rhs),rhsMax =  -6.69701810444283E+01  1.72712497875410E+00
(PID.TID 0000.0001)  ploadbar=  1.01111574045368E+05
 cg2d: Sum(rhs),rhsMax =  -6.70421489668682E+01  1.72593097341999E+00
(PID.TID 0000.0001)  ploadbar=  1.01112537628706E+05
 cg2d: Sum(rhs),rhsMax =  -6.70931534759736E+01  1.72528224767720E+00
(PID.TID 0000.0001)  ploadbar=  1.01113501212044E+05
 cg2d: Sum(rhs),rhsMax =  -6.71161796216490E+01  1.72535648137585E+00
(PID.TID 0000.0001)  ploadbar=  1.01114464795383E+05
 cg2d: Sum(rhs),rhsMax =  -6.71161438847423E+01  1.72602631265993E+00
(PID.TID 0000.0001)  ploadbar=  1.01115428378721E+05
 cg2d: Sum(rhs),rhsMax =  -6.71082115883214E+01  1.72690222067496E+00
(PID.TID 0000.0001)  ploadbar=  1.01116391962059E+05
 cg2d: Sum(rhs),rhsMax =  -6.71352905227567E+01  1.72690566382468E+00
(PID.TID 0000.0001)  ploadbar=  1.01116051085573E+05
 cg2d: Sum(rhs),rhsMax =  -6.72267817779240E+01  1.72528321149180E+00
(PID.TID 0000.0001)  ploadbar=  1.01115710209086E+05
 cg2d: Sum(rhs),rhsMax =  -6.74305713173196E+01  1.72082364287496E+00
(PID.TID 0000.0001)  ploadbar=  1.01115369332600E+05
 cg2d: Sum(rhs),rhsMax =  -6.77793410736124E+01  1.71274647773707E+00
(PID.TID 0000.0001)  ploadbar=  1.01115028456113E+05
 cg2d: Sum(rhs),rhsMax =  -6.82691726814413E+01  1.70125312049156E+00
(PID.TID 0000.0001)  ploadbar=  1.01114687579626E+05
 cg2d: Sum(rhs),rhsMax =  -6.88918699937474E+01  1.68668599785158E+00
(PID.TID 0000.0001)  ploadbar=  1.01114346703140E+05
 cg2d: Sum(rhs),rhsMax =  -6.96357988376658E+01  1.66945899902721E+00
(PID.TID 0000.0001)  ploadbar=  1.01113715662121E+05
 cg2d: Sum(rhs),rhsMax =  -7.04989385631047E+01  1.64979361199245E+00
(PID.TID 0000.0001)  ploadbar=  1.01113084621102E+05
 cg2d: Sum(rhs),rhsMax =  -7.14532472716022E+01  1.62851554245652E+00
(PID.TID 0000.0001)  ploadbar=  1.01112453580082E+05
 cg2d: Sum(rhs),rhsMax =  -7.24295275964659E+01  1.60729997400589E+00
(PID.TID 0000.0001)  ploadbar=  1.01111822539063E+05
 cg2d: Sum(rhs),rhsMax =  -7.33599585210674E+01  1.58762848869714E+00
(PID.TID 0000.0001)  ploadbar=  1.01111191498044E+05
 cg2d: Sum(rhs),rhsMax =  -7.42005558617162E+01  1.57033422248658E+00
(PID.TID 0000.0001)  ploadbar=  1.01110560457024E+05
 cg2d: Sum(rhs),rhsMax =  -7.49427735098279E+01  1.55544199753871E+00
(PID.TID 0000.0001)  ploadbar=  1.01110325594713E+05
 cg2d: Sum(rhs),rhsMax =  -7.55550633021081E+01  1.54346600698539E+00
(PID.TID 0000.0001)  ploadbar=  1.01110090732401E+05
 cg2d: Sum(rhs),rhsMax =  -7.60503314137638E+01  1.53401459562264E+00
(PID.TID 0000.0001)  ploadbar=  1.01109855870089E+05
 cg2d: Sum(rhs),rhsMax =  -7.64592397870462E+01  1.52638153668245E+00
(PID.TID 0000.0001)  ploadbar=  1.01109621007777E+05
 cg2d: Sum(rhs),rhsMax =  -7.68038290034269E+01  1.52007543180614E+00
(PID.TID 0000.0001)  ploadbar=  1.01109386145466E+05
 cg2d: Sum(rhs),rhsMax =  -7.71058370961404E+01  1.51463367615288E+00
(PID.TID 0000.0001)  ploadbar=  1.01109151283154E+05
 cg2d: Sum(rhs),rhsMax =  -7.73593639972173E+01  1.51019941808158E+00
(PID.TID 0000.0001)  ploadbar=  1.01108352701572E+05
 cg2d: Sum(rhs),rhsMax =  -7.75974946408528E+01  1.50611195030354E+00
(PID.TID 0000.0001)  ploadbar=  1.01107554119991E+05
 cg2d: Sum(rhs),rhsMax =  -7.77837944367487E+01  1.50306833051635E+00
(PID.TID 0000.0001)  ploadbar=  1.01106755538409E+05
 cg2d: Sum(rhs),rhsMax =  -7.79594286407789E+01  1.50026219480181E+00
(PID.TID 0000.0001)  ploadbar=  1.01105956956828E+05
 cg2d: Sum(rhs),rhsMax =  -7.81318959813644E+01  1.49754716953645E+00
(PID.TID 0000.0001)  ploadbar=  1.01105158375246E+05
 cg2d: Sum(rhs),rhsMax =  -7.83050036004915E+01  1.49484741916773E+00
(PID.TID 0000.0001)  ploadbar=  1.01104359793664E+05
 cg2d: Sum(rhs),rhsMax =  -7.85716239802444E+01  1.49039829696222E+00
(PID.TID 0000.0001)  ploadbar=  1.01104449950411E+05
 cg2d: Sum(rhs),rhsMax =  -7.88621482353381E+01  1.48554406067487E+00
(PID.TID 0000.0001)  ploadbar=  1.01104540107157E+05
 cg2d: Sum(rhs),rhsMax =  -7.91657213170680E+01  1.48049845647119E+00
(PID.TID 0000.0001)  ploadbar=  1.01104630263903E+05
 cg2d: Sum(rhs),rhsMax =  -7.94929183983543E+01  1.47507098699887E+00
(PID.TID 0000.0001)  ploadbar=  1.01104720420649E+05
 cg2d: Sum(rhs),rhsMax =  -7.98504995839350E+01  1.46914622021772E+00
(PID.TID 0000.0001)  ploadbar=  1.01104810577395E+05
 cg2d: Sum(rhs),rhsMax =  -8.02393349694800E+01  1.46271945124030E+00
(PID.TID 0000.0001)  ploadbar=  1.01104900734141E+05
 cg2d: Sum(rhs),rhsMax =  -8.06719052260621E+01  1.45557252392257E+00
(PID.TID 0000.0001)  ploadbar=  1.01105443440577E+05
 cg2d: Sum(rhs),rhsMax =  -8.11139160536289E+01  1.44834244004083E+00
(PID.TID 0000.0001)  ploadbar=  1.01105986147013E+05
 cg2d: Sum(rhs),rhsMax =  -8.15478667721888E+01  1.44134224193255E+00
(PID.TID 0000.0001)  ploadbar=  1.01106528853449E+05
 cg2d: Sum(rhs),rhsMax =  -8.19659253941638E+01  1.43470140052503E+00
(PID.TID 0000.0001)  ploadbar=  1.01107071559884E+05
 cg2d: Sum(rhs),rhsMax =  -8.23687937088971E+01  1.42839682129905E+00
(PID.TID 0000.0001)  ploadbar=  1.01107614266320E+05
 cg2d: Sum(rhs),rhsMax =  -8.27590453908757E+01  1.42237346043501E+00
(PID.TID 0000.0001)  ploadbar=  1.01108156972756E+05
 cg2d: Sum(rhs),rhsMax =  -8.31633495273930E+01  1.41613343823735E+00
(PID.TID 0000.0001)  ploadbar=  1.01108237493417E+05
 cg2d: Sum(rhs),rhsMax =  -8.35667556431829E+01  1.40993546439296E+00
(PID.TID 0000.0001)  ploadbar=  1.01108318014077E+05
 cg2d: Sum(rhs),rhsMax =  -8.39499199394985E+01  1.40410096608310E+00
(PID.TID 0000.0001)  ploadbar=  1.01108398534738E+05
 cg2d: Sum(rhs),rhsMax =  -8.43189836767463E+01  1.39851831885206E+00
(PID.TID 0000.0001)  ploadbar=  1.01108479055399E+05
 cg2d: Sum(rhs),rhsMax =  -8.46752969389405E+01  1.39315834248559E+00
(PID.TID 0000.0001)  ploadbar=  1.01108559576060E+05
 cg2d: Sum(rhs),rhsMax =  -8.50120001275006E+01  1.38812697472140E+00
(PID.TID 0000.0001)  ploadbar=  1.01108640096721E+05
 cg2d: Sum(rhs),rhsMax =  -8.52372028701674E+01  1.38495524864071E+00
(PID.TID 0000.0001)  ploadbar=  1.01109788139579E+05
 cg2d: Sum(rhs),rhsMax =  -8.54509867560445E+01  1.38199549890559E+00
(PID.TID 0000.0001)  ploadbar=  1.01110936182438E+05
 cg2d: Sum(rhs),rhsMax =  -8.56381422495649E+01  1.37949080658972E+00
(PID.TID 0000.0001)  ploadbar=  1.01112084225297E+05
 cg2d: Sum(rhs),rhsMax =  -8.58193820771688E+01  1.37710503378770E+00
(PID.TID 0000.0001)  ploadbar=  1.01113232268155E+05
 cg2d: Sum(rhs),rhsMax =  -8.60104980628086E+01  1.37458457401263E+00
(PID.TID 0000.0001)  ploadbar=  1.01114380311014E+05
 cg2d: Sum(rhs),rhsMax =  -8.62144305847986E+01  1.37188538860961E+00
(PID.TID 0000.0001)  ploadbar=  1.01115528353873E+05
 cg2d: Sum(rhs),rhsMax =  -8.64047054673388E+01  1.36941226218443E+00
(PID.TID 0000.0001)  ploadbar=  1.01116367720446E+05
 cg2d: Sum(rhs),rhsMax =  -8.65982243580853E+01  1.36689629484122E+00
(PID.TID 0000.0001)  ploadbar=  1.01117207087020E+05
 cg2d: Sum(rhs),rhsMax =  -8.67878101363097E+01  1.36445305488528E+00
(PID.TID 0000.0001)  ploadbar=  1.01118046453594E+05
 cg2d: Sum(rhs),rhsMax =  -8.69750817033331E+01  1.36205594880197E+00
(PID.TID 0000.0001)  ploadbar=  1.01118885820168E+05
 cg2d: Sum(rhs),rhsMax =  -8.71617307747182E+01  1.35967724000284E+00
(PID.TID 0000.0001)  ploadbar=  1.01119725186741E+05
 cg2d: Sum(rhs),rhsMax =  -8.73488764329024E+01  1.35729857666108E+00
(PID.TID 0000.0001)  ploadbar=  1.01120564553315E+05
 cg2d: Sum(rhs),rhsMax =  -8.75163548240931E+01  1.35522857486755E+00
(PID.TID 0000.0001)  ploadbar=  1.01121183688529E+05
 cg2d: Sum(rhs),rhsMax =  -8.76659008239298E+01  1.35344002027162E+00
(PID.TID 0000.0001)  ploadbar=  1.01121802823744E+05
 cg2d: Sum(rhs),rhsMax =  -8.77982233615639E+01  1.35191953364668E+00
(PID.TID 0000.0001)  ploadbar=  1.01122421958959E+05
 cg2d: Sum(rhs),rhsMax =  -8.78949088817329E+01  1.35094808636665E+00
(PID.TID 0000.0001)  ploadbar=  1.01123041094173E+05
 cg2d: Sum(rhs),rhsMax =  -8.79462936940905E+01  1.35067193139276E+00
(PID.TID 0000.0001)  ploadbar=  1.01123660229388E+05
 cg2d: Sum(rhs),rhsMax =  -8.76482632400350E+01  1.35577732604530E+00
(PID.TID 0000.0001)  ploadbar=  1.01124279364602E+05
 cg2d: Sum(rhs),rhsMax =  -8.73363584416592E+01  1.36110372071946E+00
(PID.TID 0000.0001)  ploadbar=  1.01125413926302E+05
 cg2d: Sum(rhs),rhsMax =  -8.70512994654133E+01  1.36601752030577E+00
(PID.TID 0000.0001)  ploadbar=  1.01126548488002E+05
 cg2d: Sum(rhs),rhsMax =  -8.67800853278977E+01  1.37071573683895E+00
(PID.TID 0000.0001)  ploadbar=  1.01127683049702E+05
 cg2d: Sum(rhs),rhsMax =  -8.65076514129792E+01  1.37543523436470E+00
(PID.TID 0000.0001)  ploadbar=  1.01128817611402E+05
 cg2d: Sum(rhs),rhsMax =  -8.62246665927355E+01  1.38032569831215E+00
(PID.TID 0000.0001)  ploadbar=  1.01129952173102E+05
 cg2d: Sum(rhs),rhsMax =  -8.59239892128914E+01  1.38550344606604E+00
(PID.TID 0000.0001)  ploadbar=  1.01131086734802E+05
 cg2d: Sum(rhs),rhsMax =  -8.56249217919145E+01  1.39072038592930E+00
(PID.TID 0000.0001)  ploadbar=  1.01132972447170E+05
 cg2d: Sum(rhs),rhsMax =  -8.53166050990106E+01  1.39615491527511E+00
(PID.TID 0000.0001)  ploadbar=  1.01134858159537E+05
 cg2d: Sum(rhs),rhsMax =  -8.50104695816223E+01  1.40162387770634E+00
(PID.TID 0000.0001)  ploadbar=  1.01136743871904E+05
 cg2d: Sum(rhs),rhsMax =  -8.47118918748363E+01  1.40703864542933E+00
(PID.TID 0000.0001)  ploadbar=  1.01138629584272E+05
 cg2d: Sum(rhs),rhsMax =  -8.44229966529154E+01  1.41236117881895E+00
(PID.TID 0000.0001)  ploadbar=  1.01140515296639E+05
 cg2d: Sum(rhs),rhsMax =  -8.41451887212588E+01  1.41756336459178E+00
(PID.TID 0000.0001)  ploadbar=  1.01142401009006E+05
 cg2d: Sum(rhs),rhsMax =  -8.38441463490686E+01  1.42321918792601E+00
(PID.TID 0000.0001)  ploadbar=  1.01142650543068E+05
 cg2d: Sum(rhs),rhsMax =  -8.35079462857906E+01  1.42954006885126E+00
(PID.TID 0000.0001)  ploadbar=  1.01142900077130E+05
 cg2d: Sum(rhs),rhsMax =  -8.31519099993211E+01  1.43627721881873E+00
(PID.TID 0000.0001)  ploadbar=  1.01143149611192E+05
 cg2d: Sum(rhs),rhsMax =  -8.27856255968553E+01  1.44327449581321E+00
(PID.TID 0000.0001)  ploadbar=  1.01143399145253E+05
 cg2d: Sum(rhs),rhsMax =  -8.24043562319334E+01  1.45062175812465E+00
(PID.TID 0000.0001)  ploadbar=  1.01143648679315E+05
 cg2d: Sum(rhs),rhsMax =  -8.20052292659220E+01  1.45838050008083E+00
(PID.TID 0000.0001)  ploadbar=  1.01143898213377E+05
 cg2d: Sum(rhs),rhsMax =  -8.16120737965473E+01  1.46609132974520E+00
(PID.TID 0000.0001)  ploadbar=  1.01143779337469E+05
 cg2d: Sum(rhs),rhsMax =  -8.12221137362691E+01  1.47380451151925E+00
(PID.TID 0000.0001)  ploadbar=  1.01143660461561E+05
 cg2d: Sum(rhs),rhsMax =  -8.08469227862609E+01  1.48131061959633E+00
(PID.TID 0000.0001)  ploadbar=  1.01143541585653E+05
 cg2d: Sum(rhs),rhsMax =  -8.05004635273589E+01  1.48834737344616E+00
(PID.TID 0000.0001)  ploadbar=  1.01143422709745E+05
 cg2d: Sum(rhs),rhsMax =  -8.01922467989247E+01  1.49472593078884E+00
(PID.TID 0000.0001)  ploadbar=  1.01143303833837E+05
 cg2d: Sum(rhs),rhsMax =  -7.99258068973580E+01  1.50035955473433E+00
(PID.TID 0000.0001)  ploadbar=  1.01143184957929E+05
 cg2d: Sum(rhs),rhsMax =  -7.96875328125760E+01  1.50547317297824E+00
(PID.TID 0000.0001)  ploadbar=  1.01144019998994E+05
 cg2d: Sum(rhs),rhsMax =  -7.94683997181041E+01  1.51022831012781E+00
(PID.TID 0000.0001)  ploadbar=  1.01144855040059E+05
 cg2d: Sum(rhs),rhsMax =  -7.92547277747206E+01  1.51487986640198E+00
(PID.TID 0000.0001)  ploadbar=  1.01145690081123E+05
 cg2d: Sum(rhs),rhsMax =  -7.90333629991050E+01  1.51968009686750E+00
(PID.TID 0000.0001)  ploadbar=  1.01146525122187E+05
 cg2d: Sum(rhs),rhsMax =  -7.87955023527054E+01  1.52480147620570E+00
(PID.TID 0000.0001)  ploadbar=  1.01147360163252E+05
 cg2d: Sum(rhs),rhsMax =  -7.85391383852824E+01  1.53028761018200E+00
(PID.TID 0000.0001)  ploadbar=  1.01148195204316E+05
 cg2d: Sum(rhs),rhsMax =  -7.82659109760629E+01  1.53617737370804E+00
(PID.TID 0000.0001)  ploadbar=  1.01148361054430E+05
 cg2d: Sum(rhs),rhsMax =  -7.80083699716797E+01  1.54183559736115E+00
(PID.TID 0000.0001)  ploadbar=  1.01148526904544E+05
 cg2d: Sum(rhs),rhsMax =  -7.77882760828587E+01  1.54682420896773E+00
(PID.TID 0000.0001)  ploadbar=  1.01148692754658E+05
 cg2d: Sum(rhs),rhsMax =  -7.76242711114495E+01  1.55075966396377E+00
(PID.TID 0000.0001)  ploadbar=  1.01148858604772E+05
 cg2d: Sum(rhs),rhsMax =  -7.75334589975506E+01  1.55328534601662E+00
(PID.TID 0000.0001)  ploadbar=  1.01149024454886E+05
 cg2d: Sum(rhs),rhsMax =  -7.75190478003925E+01  1.55432360203715E+00
(PID.TID 0000.0001)  ploadbar=  1.01149190305000E+05
 cg2d: Sum(rhs),rhsMax =  -7.75613012798348E+01  1.55423248699937E+00
(PID.TID 0000.0001)  ploadbar=  1.01148568704263E+05
 cg2d: Sum(rhs),rhsMax =  -7.76313804706866E+01  1.55359232277980E+00
(PID.TID 0000.0001)  ploadbar=  1.01147947103527E+05
 cg2d: Sum(rhs),rhsMax =  -7.76981458696034E+01  1.55302827973445E+00
(PID.TID 0000.0001)  ploadbar=  1.01147325502790E+05
 cg2d: Sum(rhs),rhsMax =  -7.77470141379039E+01  1.55283031028130E+00
(PID.TID 0000.0001)  ploadbar=  1.01146703902053E+05
 cg2d: Sum(rhs),rhsMax =  -7.77678816502646E+01  1.55320024788427E+00
(PID.TID 0000.0001)  ploadbar=  1.01146082301317E+05
 cg2d: Sum(rhs),rhsMax =  -7.77616194006791E+01  1.55412045794477E+00
(PID.TID 0000.0001)  ploadbar=  1.01145460700580E+05
 cg2d: Sum(rhs),rhsMax =  -7.77073202887690E+01  1.55601337933775E+00
(PID.TID 0000.0001)  ploadbar=  1.01145552353320E+05
 cg2d: Sum(rhs),rhsMax =  -7.76273439701553E+01  1.55843593388208E+00
(PID.TID 0000.0001)  ploadbar=  1.01145644006060E+05
 cg2d: Sum(rhs),rhsMax =  -7.75458247446566E+01  1.56090582674730E+00
(PID.TID 0000.0001)  ploadbar=  1.01145735658800E+05
 cg2d: Sum(rhs),rhsMax =  -7.75235983686008E+01  1.56219595899245E+00
(PID.TID 0000.0001)  ploadbar=  1.01145827311540E+05
 cg2d: Sum(rhs),rhsMax =  -7.75756563084972E+01  1.56200135527067E+00
(PID.TID 0000.0001)  ploadbar=  1.01145918964280E+05
 cg2d: Sum(rhs),rhsMax =  -7.76981225944253E+01  1.56040246181925E+00
(PID.TID 0000.0001)  ploadbar=  1.01146010617021E+05
 cg2d: Sum(rhs),rhsMax =  -7.78430105676712E+01  1.55831147792359E+00
(PID.TID 0000.0001)  ploadbar=  1.01145249168063E+05
 cg2d: Sum(rhs),rhsMax =  -7.79904301929113E+01  1.55613005505649E+00
(PID.TID 0000.0001)  ploadbar=  1.01144487719105E+05
 cg2d: Sum(rhs),rhsMax =  -7.81173194047539E+01  1.55431828319442E+00
(PID.TID 0000.0001)  ploadbar=  1.01143726270147E+05
 cg2d: Sum(rhs),rhsMax =  -7.82078302121400E+01  1.55318739241188E+00
(PID.TID 0000.0001)  ploadbar=  1.01142964821189E+05
 cg2d: Sum(rhs),rhsMax =  -7.82610146782804E+01  1.55274953624444E+00
(PID.TID 0000.0001)  ploadbar=  1.01142203372231E+05
 cg2d: Sum(rhs),rhsMax =  -7.82920303234817E+01  1.55269962580053E+00
(PID.TID 0000.0001)  ploadbar=  1.01141441923272E+05
 cg2d: Sum(rhs),rhsMax =  -7.87377978983929E+01  1.54449786114978E+00
(PID.TID 0000.0001)  ploadbar=  1.01141483220520E+05
 cg2d: Sum(rhs),rhsMax =  -7.97050672446252E+01  1.52636479807274E+00
(PID.TID 0000.0001)  ploadbar=  1.01141524517767E+05
 cg2d: Sum(rhs),rhsMax =  -8.08037386558950E+01  1.50624182394313E+00
(PID.TID 0000.0001)  ploadbar=  1.01141565815014E+05
 cg2d: Sum(rhs),rhsMax =  -8.20207486826028E+01  1.48454195821857E+00
(PID.TID 0000.0001)  ploadbar=  1.01141607112262E+05
 cg2d: Sum(rhs),rhsMax =  -8.33242452377820E+01  1.46198387996297E+00
(PID.TID 0000.0001)  ploadbar=  1.01141648409509E+05
 cg2d: Sum(rhs),rhsMax =  -8.46552883027065E+01  1.43967709894006E+00
(PID.TID 0000.0001)  ploadbar=  1.01141689706756E+05
 cg2d: Sum(rhs),rhsMax =  -8.58688478592669E+01  1.41999605984552E+00
(PID.TID 0000.0001)  ploadbar=  1.01141261242227E+05
 cg2d: Sum(rhs),rhsMax =  -8.69102854999032E+01  1.40363635686808E+00
(PID.TID 0000.0001)  ploadbar=  1.01140832777698E+05
 cg2d: Sum(rhs),rhsMax =  -8.65385153035289E+01  1.41032312570722E+00
(PID.TID 0000.0001)  ploadbar=  1.01140404313169E+05
 cg2d: Sum(rhs),rhsMax =  -8.48798727292081E+01  1.43855106521520E+00
(PID.TID 0000.0001)  ploadbar=  1.01139975848640E+05
 cg2d: Sum(rhs),rhsMax =  -8.33887890952817E+01  1.46495258045668E+00
(PID.TID 0000.0001)  ploadbar=  1.01139547384111E+05
 cg2d: Sum(rhs),rhsMax =  -8.20555089061536E+01  1.48944308639766E+00
(PID.TID 0000.0001)  ploadbar=  1.01139118919582E+05
 cg2d: Sum(rhs),rhsMax =  -8.09787808341607E+01  1.50994297127586E+00
(PID.TID 0000.0001)  ploadbar=  1.01138835232519E+05
 cg2d: Sum(rhs),rhsMax =  -8.00162731620366E+01  1.52881455926775E+00
(PID.TID 0000.0001)  ploadbar=  1.01138551545457E+05
 cg2d: Sum(rhs),rhsMax =  -7.91210100344554E+01  1.54683508282201E+00
(PID.TID 0000.0001)  ploadbar=  1.01138267858394E+05
 cg2d: Sum(rhs),rhsMax =  -7.82835561946801E+01  1.56411434968433E+00
(PID.TID 0000.0001)  ploadbar=  1.01137984171332E+05
 cg2d: Sum(rhs),rhsMax =  -7.74913924320371E+01  1.58084328565484E+00
(PID.TID 0000.0001)  ploadbar=  1.01137700484270E+05
 cg2d: Sum(rhs),rhsMax =  -7.67285850351072E+01  1.59730564001468E+00
(PID.TID 0000.0001)  ploadbar=  1.01137416797207E+05
 cg2d: Sum(rhs),rhsMax =  -7.60856892638044E+01  1.61148332545074E+00
(PID.TID 0000.0001)  ploadbar=  1.01137535182717E+05
 cg2d: Sum(rhs),rhsMax =  -7.55015964011817E+01  1.62456310148792E+00
(PID.TID 0000.0001)  ploadbar=  1.01137653568227E+05
 cg2d: Sum(rhs),rhsMax =  -7.49543709315411E+01  1.63696920671899E+00
(PID.TID 0000.0001)  ploadbar=  1.01137771953737E+05
 cg2d: Sum(rhs),rhsMax =  -7.44498666054520E+01  1.64853724543452E+00
(PID.TID 0000.0001)  ploadbar=  1.01137890339247E+05
 cg2d: Sum(rhs),rhsMax =  -7.39851221667794E+01  1.65929777217257E+00
(PID.TID 0000.0001)  ploadbar=  1.01138008724757E+05
 cg2d: Sum(rhs),rhsMax =  -7.35721875135194E+01  1.66894110125480E+00
(PID.TID 0000.0001)  ploadbar=  1.01138127110267E+05
 cg2d: Sum(rhs),rhsMax =  -7.32807802558986E+01  1.67592459495145E+00
(PID.TID 0000.0001)  ploadbar=  1.01138157085913E+05
 cg2d: Sum(rhs),rhsMax =  -7.31079933292812E+01  1.68024582491299E+00
(PID.TID 0000.0001)  ploadbar=  1.01138187061559E+05
 cg2d: Sum(rhs),rhsMax =  -7.30700312757847E+01  1.68149467822772E+00
(PID.TID 0000.0001)  ploadbar=  1.01138217037205E+05
 cg2d: Sum(rhs),rhsMax =  -7.31924604023293E+01  1.67907012111858E+00
(PID.TID 0000.0001)  ploadbar=  1.01138247012851E+05
 cg2d: Sum(rhs),rhsMax =  -7.34170635096917E+01  1.67433164281551E+00
(PID.TID 0000.0001)  ploadbar=  1.01138276988497E+05
 cg2d: Sum(rhs),rhsMax =  -7.41364053725823E+01  1.65848616221891E+00
(PID.TID 0000.0001)  ploadbar=  1.01138306964143E+05
 cg2d: Sum(rhs),rhsMax =  -7.48138363772845E+01  1.64388062835608E+00
(PID.TID 0000.0001)  ploadbar=  1.01138980294542E+05
 cg2d: Sum(rhs),rhsMax =  -7.55192021833878E+01  1.62894961743387E+00
(PID.TID 0000.0001)  ploadbar=  1.01139653624941E+05
 cg2d: Sum(rhs),rhsMax =  -7.62154706068552E+01  1.61450310234397E+00
(PID.TID 0000.0001)  ploadbar=  1.01140326955340E+05
 cg2d: Sum(rhs),rhsMax =  -7.68799051260787E+01  1.60099278529264E+00
(PID.TID 0000.0001)  ploadbar=  1.01141000285739E+05
 cg2d: Sum(rhs),rhsMax =  -7.74996858681131E+01  1.58864008664101E+00
(PID.TID 0000.0001)  ploadbar=  1.01141673616138E+05
 cg2d: Sum(rhs),rhsMax =  -7.80669810559073E+01  1.57755243370662E+00
(PID.TID 0000.0001)  ploadbar=  1.01142346946537E+05
 cg2d: Sum(rhs),rhsMax =  -7.85929451093085E+01  1.56746885575957E+00
(PID.TID 0000.0001)  ploadbar=  1.01143424753857E+05
 cg2d: Sum(rhs),rhsMax =  -7.90868640935448E+01  1.55817126396383E+00
(PID.TID 0000.0001)  ploadbar=  1.01144502561177E+05
 cg2d: Sum(rhs),rhsMax =  -7.95483424850920E+01  1.54964172867233E+00
(PID.TID 0000.0001)  ploadbar=  1.01145580368498E+05
 cg2d: Sum(rhs),rhsMax =  -7.99750824840646E+01  1.54189993015677E+00
(PID.TID 0000.0001)  ploadbar=  1.01146658175818E+05
 cg2d: Sum(rhs),rhsMax =  -8.03607867562152E+01  1.53503921965383E+00
(PID.TID 0000.0001)  ploadbar=  1.01147735983138E+05
 cg2d: Sum(rhs),rhsMax =  -8.07011961958486E+01  1.52911724526379E+00
(PID.TID 0000.0001)  ploadbar=  1.01148813790459E+05
 cg2d: Sum(rhs),rhsMax =  -8.10080376286662E+01  1.52383994258291E+00
(PID.TID 0000.0001)  ploadbar=  1.01149189070246E+05
 cg2d: Sum(rhs),rhsMax =  -8.12935617344070E+01  1.51896206444281E+00
(PID.TID 0000.0001)  ploadbar=  1.01149564350034E+05
 cg2d: Sum(rhs),rhsMax =  -8.15564889091879E+01  1.51449767064253E+00
(PID.TID 0000.0001)  ploadbar=  1.01149939629821E+05
 cg2d: Sum(rhs),rhsMax =  -8.18020125604143E+01  1.51034122281294E+00
(PID.TID 0000.0001)  ploadbar=  1.01150314909609E+05
 cg2d: Sum(rhs),rhsMax =  -8.20348443156418E+01  1.50640127494553E+00
(PID.TID 0000.0001)  ploadbar=  1.01150690189396E+05
 cg2d: Sum(rhs),rhsMax =  -8.22584096750362E+01  1.50260752455979E+00
(PID.TID 0000.0001)  ploadbar=  1.01151065469184E+05
 cg2d: Sum(rhs),rhsMax =  -8.24781281019887E+01  1.49893492300508E+00
(PID.TID 0000.0001)  ploadbar=  1.01152826998541E+05
 cg2d: Sum(rhs),rhsMax =  -8.27181913659427E+01  1.49494394185881E+00
(PID.TID 0000.0001)  ploadbar=  1.01154588527898E+05
 cg2d: Sum(rhs),rhsMax =  -8.29690606792940E+01  1.49081132092185E+00
(PID.TID 0000.0001)  ploadbar=  1.01156350057256E+05
 cg2d: Sum(rhs),rhsMax =  -8.32271131460973E+01  1.48660309727761E+00
(PID.TID 0000.0001)  ploadbar=  1.01158111586613E+05
 cg2d: Sum(rhs),rhsMax =  -8.34905523205774E+01  1.48234927460494E+00
(PID.TID 0000.0001)  ploadbar=  1.01159873115970E+05
 cg2d: Sum(rhs),rhsMax =  -8.37550969834114E+01  1.47812353967538E+00
(PID.TID 0000.0001)  ploadbar=  1.01161634645328E+05
 cg2d: Sum(rhs),rhsMax =  -8.39474461480660E+01  1.47522196477019E+00
(PID.TID 0000.0001)  ploadbar=  1.01161311865719E+05
 cg2d: Sum(rhs),rhsMax =  -8.41344223504097E+01  1.47245729492038E+00
(PID.TID 0000.0001)  ploadbar=  1.01160989086110E+05
 cg2d: Sum(rhs),rhsMax =  -8.43212401697584E+01  1.46973716541023E+00
(PID.TID 0000.0001)  ploadbar=  1.01160666306501E+05
 cg2d: Sum(rhs),rhsMax =  -8.45095893930037E+01  1.46703060070237E+00
(PID.TID 0000.0001)  ploadbar=  1.01160343526892E+05
 cg2d: Sum(rhs),rhsMax =  -8.46984275645891E+01  1.46435180199236E+00
(PID.TID 0000.0001)  ploadbar=  1.01160020747283E+05
 cg2d: Sum(rhs),rhsMax =  -8.48890368623321E+01  1.46167319826951E+00
(PID.TID 0000.0001)  ploadbar=  1.01159697967674E+05
 cg2d: Sum(rhs),rhsMax =  -8.50338133128894E+01  1.45981513189551E+00
(PID.TID 0000.0001)  ploadbar=  1.01159432137758E+05
 cg2d: Sum(rhs),rhsMax =  -8.51673656088693E+01  1.45817904895455E+00
(PID.TID 0000.0001)  ploadbar=  1.01159166307842E+05
 cg2d: Sum(rhs),rhsMax =  -8.53140114552479E+01  1.45634676038961E+00
(PID.TID 0000.0001)  ploadbar=  1.01158900477926E+05
 cg2d: Sum(rhs),rhsMax =  -8.54719207750660E+01  1.45434858951263E+00
(PID.TID 0000.0001)  ploadbar=  1.01158634648011E+05
 cg2d: Sum(rhs),rhsMax =  -8.56347525715862E+01  1.45229271636815E+00
(PID.TID 0000.0001)  ploadbar=  1.01158368818095E+05
 cg2d: Sum(rhs),rhsMax =  -8.58026736579683E+01  1.45017623859975E+00
(PID.TID 0000.0001)  ploadbar=  1.01158102988179E+05
 cg2d: Sum(rhs),rhsMax =  -8.59881091007622E+01  1.44774595871926E+00
(PID.TID 0000.0001)  ploadbar=  1.01158055346025E+05
 cg2d: Sum(rhs),rhsMax =  -8.61639227735690E+01  1.44545847437159E+00
(PID.TID 0000.0001)  ploadbar=  1.01158007703871E+05
 cg2d: Sum(rhs),rhsMax =  -8.63401013256501E+01  1.44314405877274E+00
(PID.TID 0000.0001)  ploadbar=  1.01157960061717E+05
 cg2d: Sum(rhs),rhsMax =  -8.65305577515083E+01  1.44057122308743E+00
(PID.TID 0000.0001)  ploadbar=  1.01157912419563E+05
 cg2d: Sum(rhs),rhsMax =  -8.67347410838020E+01  1.43775028787479E+00
(PID.TID 0000.0001)  ploadbar=  1.01157864777409E+05
 cg2d: Sum(rhs),rhsMax =  -8.69551146036751E+01  1.43464119538233E+00
(PID.TID 0000.0001)  ploadbar=  1.01157817135255E+05
 cg2d: Sum(rhs),rhsMax =  -8.72496805877248E+01  1.43036714604494E+00
(PID.TID 0000.0001)  ploadbar=  1.01157637928724E+05
 cg2d: Sum(rhs),rhsMax =  -8.75609696009659E+01  1.42588437642051E+00
(PID.TID 0000.0001)  ploadbar=  1.01157458722193E+05
 cg2d: Sum(rhs),rhsMax =  -8.78705982367402E+01  1.42149530769681E+00
(PID.TID 0000.0001)  ploadbar=  1.01157279515662E+05
 cg2d: Sum(rhs),rhsMax =  -8.81849992414946E+01  1.41709628655834E+00
(PID.TID 0000.0001)  ploadbar=  1.01157100309131E+05
 cg2d: Sum(rhs),rhsMax =  -8.83005625949297E+01  1.41594608541964E+00
(PID.TID 0000.0001)  ploadbar=  1.01156921102600E+05
 cg2d: Sum(rhs),rhsMax =  -8.78645255217121E+01  1.42371570769533E+00
(PID.TID 0000.0001)  ploadbar=  1.01156741896069E+05
 cg2d: Sum(rhs),rhsMax =  -8.74173713837044E+01  1.43174503325713E+00
(PID.TID 0000.0001)  ploadbar=  1.01155992284353E+05
 cg2d: Sum(rhs),rhsMax =  -8.70030454255849E+01  1.43931681289028E+00
(PID.TID 0000.0001)  ploadbar=  1.01155242672637E+05
 cg2d: Sum(rhs),rhsMax =  -8.66175214231181E+01  1.44648513624592E+00
(PID.TID 0000.0001)  ploadbar=  1.01154493060922E+05
 cg2d: Sum(rhs),rhsMax =  -8.62673473235690E+01  1.45312443529137E+00
(PID.TID 0000.0001)  ploadbar=  1.01153743449206E+05
 cg2d: Sum(rhs),rhsMax =  -8.59540582646781E+01  1.45919356455375E+00
(PID.TID 0000.0001)  ploadbar=  1.01152993837490E+05
 cg2d: Sum(rhs),rhsMax =  -8.56737675225023E+01  1.46474409488880E+00
(PID.TID 0000.0001)  ploadbar=  1.01152244225775E+05
 cg2d: Sum(rhs),rhsMax =  -8.54343983317289E+01  1.46961820104211E+00
(PID.TID 0000.0001)  ploadbar=  1.01152114683393E+05
 cg2d: Sum(rhs),rhsMax =  -8.52486531849774E+01  1.47358343380471E+00
(PID.TID 0000.0001)  ploadbar=  1.01151985141011E+05
 cg2d: Sum(rhs),rhsMax =  -8.50909058663717E+01  1.47706978611089E+00
(PID.TID 0000.0001)  ploadbar=  1.01151855598629E+05
 cg2d: Sum(rhs),rhsMax =  -8.49915273004507E+01  1.47954329653406E+00
(PID.TID 0000.0001)  ploadbar=  1.01151726056247E+05
 cg2d: Sum(rhs),rhsMax =  -8.49895301587259E+01  1.48031442803001E+00
(PID.TID 0000.0001)  ploadbar=  1.01151596513866E+05
 cg2d: Sum(rhs),rhsMax =  -8.50344065332009E+01  1.48026106631761E+00
(PID.TID 0000.0001)  ploadbar=  1.01151466971484E+05
 cg2d: Sum(rhs),rhsMax =  -8.51062664566037E+01  1.47968683504864E+00
(PID.TID 0000.0001)  ploadbar=  1.01150989720174E+05
 cg2d: Sum(rhs),rhsMax =  -8.51686273847438E+01  1.47922618579458E+00
(PID.TID 0000.0001)  ploadbar=  1.01150512468864E+05
 cg2d: Sum(rhs),rhsMax =  -8.52205767665945E+01  1.47889460161647E+00
(PID.TID 0000.0001)  ploadbar=  1.01150035217555E+05
 cg2d: Sum(rhs),rhsMax =  -8.52599292514936E+01  1.47873114999998E+00
(PID.TID 0000.0001)  ploadbar=  1.01149557966245E+05
 cg2d: Sum(rhs),rhsMax =  -8.52999989483524E+01  1.47850512453714E+00
(PID.TID 0000.0001)  ploadbar=  1.01149080714935E+05
 cg2d: Sum(rhs),rhsMax =  -8.53657981119987E+01  1.47778431437126E+00
(PID.TID 0000.0001)  ploadbar=  1.01148603463625E+05
 cg2d: Sum(rhs),rhsMax =  -8.55098433527373E+01  1.47574480568530E+00
(PID.TID 0000.0001)  ploadbar=  1.01148160941748E+05
 cg2d: Sum(rhs),rhsMax =  -8.56843647085877E+01  1.47321661256530E+00
(PID.TID 0000.0001)  ploadbar=  1.01147718419871E+05
 cg2d: Sum(rhs),rhsMax =  -8.59079114701453E+01  1.46988853097743E+00
(PID.TID 0000.0001)  ploadbar=  1.01147275897994E+05
 cg2d: Sum(rhs),rhsMax =  -8.61669950948235E+01  1.46600278149645E+00
(PID.TID 0000.0001)  ploadbar=  1.01146833376117E+05
 cg2d: Sum(rhs),rhsMax =  -8.64320330439203E+01  1.46206952347009E+00
(PID.TID 0000.0001)  ploadbar=  1.01146390854241E+05
 cg2d: Sum(rhs),rhsMax =  -8.66721616378801E+01  1.45861032625792E+00
(PID.TID 0000.0001)  ploadbar=  1.01145948332363E+05
 cg2d: Sum(rhs),rhsMax =  -8.69748915550206E+01  1.45414209418329E+00
(PID.TID 0000.0001)  ploadbar=  1.01147004052332E+05
 cg2d: Sum(rhs),rhsMax =  -8.73037226131445E+01  1.44928962567358E+00
(PID.TID 0000.0001)  ploadbar=  1.01148059772301E+05
 cg2d: Sum(rhs),rhsMax =  -8.76626303069830E+01  1.44399613415337E+00
(PID.TID 0000.0001)  ploadbar=  1.01149115492269E+05
 cg2d: Sum(rhs),rhsMax =  -8.80434591464562E+01  1.43840476406679E+00
(PID.TID 0000.0001)  ploadbar=  1.01150171212238E+05
 cg2d: Sum(rhs),rhsMax =  -8.84230154470550E+01  1.43289871192322E+00
(PID.TID 0000.0001)  ploadbar=  1.01151226932207E+05
 cg2d: Sum(rhs),rhsMax =  -8.87776240911258E+01  1.42785868813104E+00
(PID.TID 0000.0001)  ploadbar=  1.01152282652175E+05
 cg2d: Sum(rhs),rhsMax =  -8.90331975919569E+01  1.42443582409547E+00
(PID.TID 0000.0001)  ploadbar=  1.01152355378476E+05
 cg2d: Sum(rhs),rhsMax =  -8.92388614029467E+01  1.42182036637699E+00
(PID.TID 0000.0001)  ploadbar=  1.01152428104776E+05
 cg2d: Sum(rhs),rhsMax =  -8.93837848154448E+01  1.42017505724016E+00
(PID.TID 0000.0001)  ploadbar=  1.01152500831077E+05
 cg2d: Sum(rhs),rhsMax =  -8.95143077714507E+01  1.41875641255879E+00
(PID.TID 0000.0001)  ploadbar=  1.01152573557377E+05
 cg2d: Sum(rhs),rhsMax =  -8.96732846161003E+01  1.41688465833956E+00
(PID.TID 0000.0001)  ploadbar=  1.01152646283678E+05
 cg2d: Sum(rhs),rhsMax =  -8.98921972835354E+01  1.41406721218511E+00
(PID.TID 0000.0001)  ploadbar=  1.01152719009978E+05
 cg2d: Sum(rhs),rhsMax =  -9.01318162549911E+01  1.41091574008002E+00
(PID.TID 0000.0001)  ploadbar=  1.01152213060267E+05
 cg2d: Sum(rhs),rhsMax =  -9.04148221791060E+01  1.40708128167553E+00
(PID.TID 0000.0001)  ploadbar=  1.01151707110556E+05
 cg2d: Sum(rhs),rhsMax =  -9.07201620702857E+01  1.40289922367700E+00
(PID.TID 0000.0001)  ploadbar=  1.01151201160844E+05
 cg2d: Sum(rhs),rhsMax =  -9.10346544269308E+01  1.39857754133980E+00
(PID.TID 0000.0001)  ploadbar=  1.01150695211133E+05
 cg2d: Sum(rhs),rhsMax =  -9.13398322113807E+01  1.39440120547944E+00
(PID.TID 0000.0001)  ploadbar=  1.01150189261421E+05
 cg2d: Sum(rhs),rhsMax =  -9.16282002525092E+01  1.39048063579537E+00
(PID.TID 0000.0001)  ploadbar=  1.01149683311710E+05
 cg2d: Sum(rhs),rhsMax =  -9.19058419538542E+01  1.38675192474573E+00
(PID.TID 0000.0001)  ploadbar=  1.01149428290261E+05
 cg2d: Sum(rhs),rhsMax =  -9.21659513318710E+01  1.38331287619769E+00
(PID.TID 0000.0001)  ploadbar=  1.01149173268811E+05
 cg2d: Sum(rhs),rhsMax =  -9.24265262178555E+01  1.37988965291348E+00
(PID.TID 0000.0001)  ploadbar=  1.01148918247362E+05
 cg2d: Sum(rhs),rhsMax =  -9.26812422778726E+01  1.37657469463916E+00
(PID.TID 0000.0001)  ploadbar=  1.01148663225913E+05
 cg2d: Sum(rhs),rhsMax =  -9.29358529207570E+01  1.37327842923409E+00
(PID.TID 0000.0001)  ploadbar=  1.01148408204464E+05
 cg2d: Sum(rhs),rhsMax =  -9.31937877426898E+01  1.36995020140622E+00
(PID.TID 0000.0001)  ploadbar=  1.01148153183014E+05
 cg2d: Sum(rhs),rhsMax =  -9.34753413586428E+01  1.36630307404789E+00
(PID.TID 0000.0001)  ploadbar=  1.01147683072065E+05
 cg2d: Sum(rhs),rhsMax =  -9.37361846792488E+01  1.36298778119081E+00
(PID.TID 0000.0001)  ploadbar=  1.01147212961115E+05
 cg2d: Sum(rhs),rhsMax =  -9.39839711284117E+01  1.35988918623879E+00
(PID.TID 0000.0001)  ploadbar=  1.01146742850166E+05
 cg2d: Sum(rhs),rhsMax =  -9.39966870890485E+01  1.36020893321263E+00
(PID.TID 0000.0001)  ploadbar=  1.01146272739216E+05
 cg2d: Sum(rhs),rhsMax =  -9.38351621407381E+01  1.36306072045258E+00
(PID.TID 0000.0001)  ploadbar=  1.01145802628267E+05
 cg2d: Sum(rhs),rhsMax =  -9.36845754477915E+01  1.36576715105975E+00
(PID.TID 0000.0001)  ploadbar=  1.01145332517317E+05
 cg2d: Sum(rhs),rhsMax =  -9.35302436421518E+01  1.36853416529616E+00
(PID.TID 0000.0001)  ploadbar=  1.01145040983568E+05
 cg2d: Sum(rhs),rhsMax =  -9.33564733508922E+01  1.37159191198385E+00
(PID.TID 0000.0001)  ploadbar=  1.01144749449819E+05
 cg2d: Sum(rhs),rhsMax =  -9.31623891867552E+01  1.37495639922133E+00
(PID.TID 0000.0001)  ploadbar=  1.01144457916069E+05
 cg2d: Sum(rhs),rhsMax =  -9.29534096325050E+01  1.37855117240758E+00
(PID.TID 0000.0001)  ploadbar=  1.01144166382320E+05
 cg2d: Sum(rhs),rhsMax =  -9.27398508883712E+01  1.38222383698257E+00
(PID.TID 0000.0001)  ploadbar=  1.01143874848571E+05
 cg2d: Sum(rhs),rhsMax =  -9.25322623095398E+01  1.38581715385525E+00
(PID.TID 0000.0001)  ploadbar=  1.01143583314822E+05
 cg2d: Sum(rhs),rhsMax =  -9.23597726561243E+01  1.38887496862972E+00
(PID.TID 0000.0001)  ploadbar=  1.01143510338073E+05
 cg2d: Sum(rhs),rhsMax =  -9.22110478777022E+01  1.39156049040025E+00
(PID.TID 0000.0001)  ploadbar=  1.01143437361324E+05
 cg2d: Sum(rhs),rhsMax =  -9.20891545480155E+01  1.39382363605862E+00
(PID.TID 0000.0001)  ploadbar=  1.01143364384575E+05
 cg2d: Sum(rhs),rhsMax =  -9.19913827021556E+01  1.39570010228572E+00
(PID.TID 0000.0001)  ploadbar=  1.01143291407827E+05
 cg2d: Sum(rhs),rhsMax =  -9.19113609971997E+01  1.39728145042944E+00
(PID.TID 0000.0001)  ploadbar=  1.01143218431078E+05
 cg2d: Sum(rhs),rhsMax =  -9.18415081262955E+01  1.39868208217630E+00
(PID.TID 0000.0001)  ploadbar=  1.01143145454329E+05
 cg2d: Sum(rhs),rhsMax =  -9.17607062958426E+01  1.40029105781813E+00
(PID.TID 0000.0001)  ploadbar=  1.01142400999200E+05
 cg2d: Sum(rhs),rhsMax =  -9.16628730355673E+01  1.40219988421055E+00
(PID.TID 0000.0001)  ploadbar=  1.01141656544072E+05
 cg2d: Sum(rhs),rhsMax =  -9.15405166851042E+01  1.40452508673398E+00
(PID.TID 0000.0001)  ploadbar=  1.01140912088943E+05
 cg2d: Sum(rhs),rhsMax =  -9.13943580010703E+01  1.40726023198737E+00
(PID.TID 0000.0001)  ploadbar=  1.01140167633814E+05
 cg2d: Sum(rhs),rhsMax =  -9.12319474905081E+01  1.41029026483414E+00
(PID.TID 0000.0001)  ploadbar=  1.01139423178685E+05
 cg2d: Sum(rhs),rhsMax =  -9.10922362722082E+01  1.41301308176016E+00
(PID.TID 0000.0001)  ploadbar=  1.01138678723556E+05
 cg2d: Sum(rhs),rhsMax =  -9.09849474119782E+01  1.41524246472600E+00
(PID.TID 0000.0001)  ploadbar=  1.01138167990953E+05
 cg2d: Sum(rhs),rhsMax =  -9.09129912912812E+01  1.41692970393621E+00
(PID.TID 0000.0001)  ploadbar=  1.01137657258349E+05
 cg2d: Sum(rhs),rhsMax =  -9.08582057261552E+01  1.41835343313285E+00
(PID.TID 0000.0001)  ploadbar=  1.01137146525746E+05
 cg2d: Sum(rhs),rhsMax =  -9.08073948434216E+01  1.41972030983927E+00
(PID.TID 0000.0001)  ploadbar=  1.01136635793143E+05
 cg2d: Sum(rhs),rhsMax =  -9.07529505606430E+01  1.42114657571071E+00
(PID.TID 0000.0001)  ploadbar=  1.01136125060539E+05
 cg2d: Sum(rhs),rhsMax =  -9.06966790565507E+01  1.42260180159877E+00
(PID.TID 0000.0001)  ploadbar=  1.01135614327936E+05
 cg2d: Sum(rhs),rhsMax =  -9.06372630792348E+01  1.42410653134293E+00
(PID.TID 0000.0001)  ploadbar=  1.01136480980992E+05
 cg2d: Sum(rhs),rhsMax =  -9.12982185910447E+01  1.41436227819468E+00
(PID.TID 0000.0001)  ploadbar=  1.01137347634047E+05
 cg2d: Sum(rhs),rhsMax =  -9.21069726502531E+01  1.40250050894881E+00
(PID.TID 0000.0001)  ploadbar=  1.01138214287103E+05
 cg2d: Sum(rhs),rhsMax =  -9.29209279147315E+01  1.39076386633440E+00
(PID.TID 0000.0001)  ploadbar=  1.01139080940159E+05
 cg2d: Sum(rhs),rhsMax =  -9.37537672275667E+01  1.37894703399395E+00
(PID.TID 0000.0001)  ploadbar=  1.01139947593215E+05
 cg2d: Sum(rhs),rhsMax =  -9.46200200353768E+01  1.36684839893371E+00
(PID.TID 0000.0001)  ploadbar=  1.01140814246271E+05
 cg2d: Sum(rhs),rhsMax =  -9.55223131817674E+01  1.35443515595311E+00
(PID.TID 0000.0001)  ploadbar=  1.01141139651548E+05
 cg2d: Sum(rhs),rhsMax =  -9.64540330829647E+01  1.34182253483217E+00
(PID.TID 0000.0001)  ploadbar=  1.01141465056826E+05
 cg2d: Sum(rhs),rhsMax =  -9.74273441688966E+01  1.32886148408430E+00
(PID.TID 0000.0001)  ploadbar=  1.01141790462104E+05
 cg2d: Sum(rhs),rhsMax =  -9.84490509760976E+01  1.31548914225318E+00
(PID.TID 0000.0001)  ploadbar=  1.01142115867381E+05
 cg2d: Sum(rhs),rhsMax =  -9.95072447120738E+01  1.30189225601151E+00
(PID.TID 0000.0001)  ploadbar=  1.01142441272659E+05
 cg2d: Sum(rhs),rhsMax =  -1.00619094790916E+02  1.28787350675255E+00
(PID.TID 0000.0001)  ploadbar=  1.01142766677937E+05
 cg2d: Sum(rhs),rhsMax =  -1.01639758174799E+02  1.27530756069503E+00
(PID.TID 0000.0001)  ploadbar=  1.01142668819304E+05
 cg2d: Sum(rhs),rhsMax =  -1.01829603927195E+02  1.27329789241764E+00
(PID.TID 0000.0001)  ploadbar=  1.01142570960671E+05
 cg2d: Sum(rhs),rhsMax =  -1.02027576524619E+02  1.27119592911510E+00
(PID.TID 0000.0001)  ploadbar=  1.01142473102038E+05
 cg2d: Sum(rhs),rhsMax =  -1.02230463214774E+02  1.26904433802824E+00
(PID.TID 0000.0001)  ploadbar=  1.01142375243405E+05
 cg2d: Sum(rhs),rhsMax =  -1.02440285947552E+02  1.26681872691632E+00
(PID.TID 0000.0001)  ploadbar=  1.01142277384773E+05
 cg2d: Sum(rhs),rhsMax =  -1.02658174656354E+02  1.26450599936942E+00
(PID.TID 0000.0001)  ploadbar=  1.01142179526140E+05
 cg2d: Sum(rhs),rhsMax =  -1.02884030725983E+02  1.26210358776837E+00
(PID.TID 0000.0001)  ploadbar=  1.01143046417534E+05
 cg2d: Sum(rhs),rhsMax =  -1.03091866175371E+02  1.25993077698996E+00
(PID.TID 0000.0001)  ploadbar=  1.01143913308928E+05
 cg2d: Sum(rhs),rhsMax =  -1.03282889177720E+02  1.25797162546374E+00
(PID.TID 0000.0001)  ploadbar=  1.01144780200322E+05
 cg2d: Sum(rhs),rhsMax =  -1.03459701408150E+02  1.25619386476387E+00
(PID.TID 0000.0001)  ploadbar=  1.01145647091716E+05
 cg2d: Sum(rhs),rhsMax =  -1.03629268797965E+02  1.25451128302240E+00
(PID.TID 0000.0001)  ploadbar=  1.01146513983111E+05
 cg2d: Sum(rhs),rhsMax =  -1.03796296528842E+02  1.25286348393744E+00
(PID.TID 0000.0001)  ploadbar=  1.01147380874505E+05
 cg2d: Sum(rhs),rhsMax =  -1.04014879679219E+02  1.25060499623727E+00
(PID.TID 0000.0001)  ploadbar=  1.01147255817162E+05
 cg2d: Sum(rhs),rhsMax =  -1.04273511244979E+02  1.24787859041387E+00
(PID.TID 0000.0001)  ploadbar=  1.01147130759819E+05
 cg2d: Sum(rhs),rhsMax =  -1.04553295565550E+02  1.24491458465161E+00
(PID.TID 0000.0001)  ploadbar=  1.01147005702476E+05
 cg2d: Sum(rhs),rhsMax =  -1.04865864935514E+02  1.24157823348065E+00
(PID.TID 0000.0001)  ploadbar=  1.01146880645133E+05
 cg2d: Sum(rhs),rhsMax =  -1.04343286411227E+02  1.24817374213766E+00
(PID.TID 0000.0001)  ploadbar=  1.01146755587790E+05
 cg2d: Sum(rhs),rhsMax =  -1.03657787188364E+02  1.25680610287494E+00
(PID.TID 0000.0001)  ploadbar=  1.01146630530447E+05
 cg2d: Sum(rhs),rhsMax =  -1.02945353984055E+02  1.26586919438296E+00
(PID.TID 0000.0001)  ploadbar=  1.01147028103954E+05
 cg2d: Sum(rhs),rhsMax =  -1.02268163559964E+02  1.27460474626200E+00
(PID.TID 0000.0001)  ploadbar=  1.01147425677461E+05
 cg2d: Sum(rhs),rhsMax =  -1.01637402756742E+02  1.28285372001817E+00
(PID.TID 0000.0001)  ploadbar=  1.01147823250968E+05
 cg2d: Sum(rhs),rhsMax =  -1.01049249167803E+02  1.29064407200844E+00
(PID.TID 0000.0001)  ploadbar=  1.01148220824475E+05
 cg2d: Sum(rhs),rhsMax =  -1.00469459254943E+02  1.29839918813325E+00
(PID.TID 0000.0001)  ploadbar=  1.01148618397983E+05
 cg2d: Sum(rhs),rhsMax =  -9.98729720089432E+01  1.30644384035198E+00
(PID.TID 0000.0001)  ploadbar=  1.01149015971490E+05
 cg2d: Sum(rhs),rhsMax =  -9.92509626507488E+01  1.31492926695762E+00
(PID.TID 0000.0001)  ploadbar=  1.01149741075324E+05
 cg2d: Sum(rhs),rhsMax =  -9.86198920652801E+01  1.32365017536613E+00
(PID.TID 0000.0001)  ploadbar=  1.01150466179159E+05
 cg2d: Sum(rhs),rhsMax =  -9.79715725068861E+01  1.33272573168278E+00
(PID.TID 0000.0001)  ploadbar=  1.01151191282994E+05
 cg2d: Sum(rhs),rhsMax =  -9.73079253824800E+01  1.34213885764694E+00
(PID.TID 0000.0001)  ploadbar=  1.01151916386829E+05
 cg2d: Sum(rhs),rhsMax =  -9.66485507346803E+01  1.35162612289274E+00
(PID.TID 0000.0001)  ploadbar=  1.01152641490664E+05
 cg2d: Sum(rhs),rhsMax =  -9.60085451369799E+01  1.36097277837680E+00
(PID.TID 0000.0001)  ploadbar=  1.01153366594499E+05
 cg2d: Sum(rhs),rhsMax =  -9.54545374534319E+01  1.36922403923841E+00
(PID.TID 0000.0001)  ploadbar=  1.01154285010299E+05
 cg2d: Sum(rhs),rhsMax =  -9.49881256932689E+01  1.37631611225903E+00
(PID.TID 0000.0001)  ploadbar=  1.01155203426100E+05
 cg2d: Sum(rhs),rhsMax =  -9.46021746952545E+01  1.38231428481801E+00
(PID.TID 0000.0001)  ploadbar=  1.01156121841900E+05
 cg2d: Sum(rhs),rhsMax =  -9.42780204494624E+01  1.38746174804169E+00
(PID.TID 0000.0001)  ploadbar=  1.01157040257701E+05
 cg2d: Sum(rhs),rhsMax =  -9.40017753771150E+01  1.39194197587129E+00
(PID.TID 0000.0001)  ploadbar=  1.01157958673501E+05
 cg2d: Sum(rhs),rhsMax =  -9.37634019713758E+01  1.39588641331158E+00
(PID.TID 0000.0001)  ploadbar=  1.01158877089301E+05
 cg2d: Sum(rhs),rhsMax =  -9.34581327192965E+01  1.40084657946215E+00
(PID.TID 0000.0001)  ploadbar=  1.01159391863457E+05
 cg2d: Sum(rhs),rhsMax =  -9.31481504174994E+01  1.40590293481188E+00
(PID.TID 0000.0001)  ploadbar=  1.01159906637612E+05
 cg2d: Sum(rhs),rhsMax =  -9.28678725515928E+01  1.41053429412117E+00
(PID.TID 0000.0001)  ploadbar=  1.01160421411768E+05
 cg2d: Sum(rhs),rhsMax =  -9.26433636937110E+01  1.41433157908792E+00
(PID.TID 0000.0001)  ploadbar=  1.01160936185924E+05
 cg2d: Sum(rhs),rhsMax =  -9.25059795306628E+01  1.41679796119304E+00
(PID.TID 0000.0001)  ploadbar=  1.01161450960079E+05
 cg2d: Sum(rhs),rhsMax =  -9.24819775413815E+01  1.41751457574252E+00
(PID.TID 0000.0001)  ploadbar=  1.01161965734235E+05
 cg2d: Sum(rhs),rhsMax =  -9.27261270530316E+01  1.41411515572206E+00
(PID.TID 0000.0001)  ploadbar=  1.01161829403668E+05
 cg2d: Sum(rhs),rhsMax =  -9.31586247541570E+01  1.40786528264567E+00
(PID.TID 0000.0001)  ploadbar=  1.01161693073101E+05
 cg2d: Sum(rhs),rhsMax =  -9.37747232341771E+01  1.39891189170496E+00
(PID.TID 0000.0001)  ploadbar=  1.01161556742534E+05
 cg2d: Sum(rhs),rhsMax =  -9.45553294272431E+01  1.38763801699323E+00
(PID.TID 0000.0001)  ploadbar=  1.01161420411967E+05
 cg2d: Sum(rhs),rhsMax =  -9.54707752181477E+01  1.37458485683514E+00
(PID.TID 0000.0001)  ploadbar=  1.01161284081400E+05
 cg2d: Sum(rhs),rhsMax =  -9.64638352775859E+01  1.36066169607258E+00
(PID.TID 0000.0001)  ploadbar=  1.01161147750833E+05
 cg2d: Sum(rhs),rhsMax =  -9.72193313511577E+01  1.35035868321530E+00
(PID.TID 0000.0001)  ploadbar=  1.01160942490097E+05
 cg2d: Sum(rhs),rhsMax =  -9.77257719920362E+01  1.34367283316241E+00
(PID.TID 0000.0001)  ploadbar=  1.01160737229361E+05
 cg2d: Sum(rhs),rhsMax =  -9.77353873385529E+01  1.34389186164127E+00
(PID.TID 0000.0001)  ploadbar=  1.01160531968625E+05
 cg2d: Sum(rhs),rhsMax =  -9.73951626846901E+01  1.34897598797727E+00
(PID.TID 0000.0001)  ploadbar=  1.01160326707889E+05
 cg2d: Sum(rhs),rhsMax =  -9.70531030160009E+01  1.35415700134841E+00
(PID.TID 0000.0001)  ploadbar=  1.01160121447153E+05
 cg2d: Sum(rhs),rhsMax =  -9.66986725492330E+01  1.35958206088917E+00
(PID.TID 0000.0001)  ploadbar=  1.01159916186418E+05
 cg2d: Sum(rhs),rhsMax =  -9.64213909431450E+01  1.36396618233138E+00
(PID.TID 0000.0001)  ploadbar=  1.01159992658923E+05
 cg2d: Sum(rhs),rhsMax =  -9.61475857308125E+01  1.36834015422105E+00
(PID.TID 0000.0001)  ploadbar=  1.01160069131427E+05
 cg2d: Sum(rhs),rhsMax =  -9.58411750809496E+01  1.37321722149318E+00
(PID.TID 0000.0001)  ploadbar=  1.01160145603932E+05
 cg2d: Sum(rhs),rhsMax =  -9.55010874813052E+01  1.37862224914322E+00
(PID.TID 0000.0001)  ploadbar=  1.01160222076437E+05
 cg2d: Sum(rhs),rhsMax =  -9.51319086742329E+01  1.38450138876266E+00
(PID.TID 0000.0001)  ploadbar=  1.01160298548942E+05
 cg2d: Sum(rhs),rhsMax =  -9.47298558334795E+01  1.39092050177623E+00
(PID.TID 0000.0001)  ploadbar=  1.01160375021447E+05
 cg2d: Sum(rhs),rhsMax =  -9.44534293811012E+01  1.39553384540397E+00
(PID.TID 0000.0001)  ploadbar=  1.01161637482390E+05
 cg2d: Sum(rhs),rhsMax =  -9.41754947652361E+01  1.40019480164586E+00
(PID.TID 0000.0001)  ploadbar=  1.01162899943333E+05
 cg2d: Sum(rhs),rhsMax =  -9.38670812196140E+01  1.40533794587832E+00
(PID.TID 0000.0001)  ploadbar=  1.01164162404276E+05
 cg2d: Sum(rhs),rhsMax =  -9.35385414658156E+01  1.41081473979051E+00
(PID.TID 0000.0001)  ploadbar=  1.01165424865219E+05
 cg2d: Sum(rhs),rhsMax =  -9.31763589308870E+01  1.41683571229653E+00
(PID.TID 0000.0001)  ploadbar=  1.01166687326162E+05
 cg2d: Sum(rhs),rhsMax =  -9.28609904576910E+01  1.42218093347205E+00
(PID.TID 0000.0001)  ploadbar=  1.01167949787105E+05
 cg2d: Sum(rhs),rhsMax =  -9.26203837081399E+01  1.42638072357668E+00
(PID.TID 0000.0001)  ploadbar=  1.01168406212032E+05
 cg2d: Sum(rhs),rhsMax =  -9.24895108689956E+01  1.42887513778146E+00
(PID.TID 0000.0001)  ploadbar=  1.01168862636959E+05
 cg2d: Sum(rhs),rhsMax =  -9.24736029737730E+01  1.42956693296268E+00
(PID.TID 0000.0001)  ploadbar=  1.01169319061885E+05
 cg2d: Sum(rhs),rhsMax =  -9.25340373955120E+01  1.42904624643113E+00
(PID.TID 0000.0001)  ploadbar=  1.01169775486812E+05
 cg2d: Sum(rhs),rhsMax =  -9.33413459822251E+01  1.41706212697846E+00
(PID.TID 0000.0001)  ploadbar=  1.01170231911739E+05
 cg2d: Sum(rhs),rhsMax =  -9.45423395149272E+01  1.39939650672265E+00
(PID.TID 0000.0001)  ploadbar=  1.01170688336665E+05
 cg2d: Sum(rhs),rhsMax =  -9.57175390588434E+01  1.38257261077647E+00
(PID.TID 0000.0001)  ploadbar=  1.01170970359040E+05
 cg2d: Sum(rhs),rhsMax =  -9.68646177486115E+01  1.36658313951668E+00
(PID.TID 0000.0001)  ploadbar=  1.01171252381415E+05
 cg2d: Sum(rhs),rhsMax =  -9.79451993494299E+01  1.35191402324141E+00
(PID.TID 0000.0001)  ploadbar=  1.01171534403790E+05
 cg2d: Sum(rhs),rhsMax =  -9.89432740717176E+01  1.33870699841070E+00
(PID.TID 0000.0001)  ploadbar=  1.01171816426164E+05
 cg2d: Sum(rhs),rhsMax =  -9.98525624530924E+01  1.32696855470148E+00
(PID.TID 0000.0001)  ploadbar=  1.01172098448539E+05
 cg2d: Sum(rhs),rhsMax =  -1.00673392985547E+02  1.31662156372651E+00
(PID.TID 0000.0001)  ploadbar=  1.01172380470914E+05
 cg2d: Sum(rhs),rhsMax =  -1.01395524171225E+02  1.30771364054748E+00
(PID.TID 0000.0001)  ploadbar=  1.01171287150819E+05
 cg2d: Sum(rhs),rhsMax =  -1.02083588752421E+02  1.29936710211550E+00
(PID.TID 0000.0001)  ploadbar=  1.01170193830724E+05
 cg2d: Sum(rhs),rhsMax =  -1.02727876024729E+02  1.29168275959963E+00
(PID.TID 0000.0001)  ploadbar=  1.01169100510629E+05
 cg2d: Sum(rhs),rhsMax =  -1.03308817193036E+02  1.28488159091523E+00
(PID.TID 0000.0001)  ploadbar=  1.01168007190534E+05
 cg2d: Sum(rhs),rhsMax =  -1.03824705174083E+02  1.27895846462712E+00
(PID.TID 0000.0001)  ploadbar=  1.01166913870440E+05
 cg2d: Sum(rhs),rhsMax =  -1.03737985745173E+02  1.28048970901023E+00
(PID.TID 0000.0001)  ploadbar=  1.01165820550345E+05
 cg2d: Sum(rhs),rhsMax =  -1.03552422437808E+02  1.28323648818958E+00
(PID.TID 0000.0001)  ploadbar=  1.01164894956260E+05
 cg2d: Sum(rhs),rhsMax =  -1.03321864652556E+02  1.28654164927165E+00
(PID.TID 0000.0001)  ploadbar=  1.01163969362176E+05
 cg2d: Sum(rhs),rhsMax =  -1.03068415626872E+02  1.29013680603136E+00
(PID.TID 0000.0001)  ploadbar=  1.01163043768092E+05
 cg2d: Sum(rhs),rhsMax =  -1.02799330962005E+02  1.29393503104643E+00
(PID.TID 0000.0001)  ploadbar=  1.01162118174008E+05
 cg2d: Sum(rhs),rhsMax =  -1.02500187065523E+02  1.29812263992164E+00
(PID.TID 0000.0001)  ploadbar=  1.01161192579924E+05
 cg2d: Sum(rhs),rhsMax =  -1.02233087612135E+02  1.30191440829823E+00
(PID.TID 0000.0001)  ploadbar=  1.01160266985840E+05
 cg2d: Sum(rhs),rhsMax =  -1.02083638175719E+02  1.30419376525122E+00
(PID.TID 0000.0001)  ploadbar=  1.01159805414882E+05
 cg2d: Sum(rhs),rhsMax =  -1.02048401715361E+02  1.30498857828545E+00
(PID.TID 0000.0001)  ploadbar=  1.01159343843923E+05
 cg2d: Sum(rhs),rhsMax =  -1.03403797442721E+02  1.28819427630217E+00
(PID.TID 0000.0001)  ploadbar=  1.01158882272965E+05
 cg2d: Sum(rhs),rhsMax =  -1.04812011000618E+02  1.27116609433605E+00
(PID.TID 0000.0001)  ploadbar=  1.01158420702007E+05
 cg2d: Sum(rhs),rhsMax =  -1.06232323347940E+02  1.25441928060501E+00
(PID.TID 0000.0001)  ploadbar=  1.01157959131048E+05
 cg2d: Sum(rhs),rhsMax =  -1.07645645870771E+02  1.23816747671743E+00
(PID.TID 0000.0001)  ploadbar=  1.01157497560090E+05
 cg2d: Sum(rhs),rhsMax =  -1.08934929560834E+02  1.22374538842078E+00
(PID.TID 0000.0001)  ploadbar=  1.01158653440307E+05
 cg2d: Sum(rhs),rhsMax =  -1.09287797440806E+02  1.22004250727073E+00
(PID.TID 0000.0001)  ploadbar=  1.01159809320524E+05
 cg2d: Sum(rhs),rhsMax =  -1.09636213452400E+02  1.21643081495520E+00
(PID.TID 0000.0001)  ploadbar=  1.01160965200741E+05
 cg2d: Sum(rhs),rhsMax =  -1.09981373456152E+02  1.21289564430658E+00
(PID.TID 0000.0001)  ploadbar=  1.01162121080958E+05
 cg2d: Sum(rhs),rhsMax =  -1.10313658342052E+02  1.20954122174823E+00
(PID.TID 0000.0001)  ploadbar=  1.01163276961175E+05
 cg2d: Sum(rhs),rhsMax =  -1.10607815155276E+02  1.20664165587626E+00
(PID.TID 0000.0001)  ploadbar=  1.01164432841392E+05
 cg2d: Sum(rhs),rhsMax =  -1.10856839801972E+02  1.20426061999189E+00
(PID.TID 0000.0001)  ploadbar=  1.01164688998058E+05
 cg2d: Sum(rhs),rhsMax =  -1.11071412032364E+02  1.20227588150726E+00
(PID.TID 0000.0001)  ploadbar=  1.01164945154723E+05
 cg2d: Sum(rhs),rhsMax =  -1.10811511472925E+02  1.20545135432669E+00
(PID.TID 0000.0001)  ploadbar=  1.01165201311388E+05
 cg2d: Sum(rhs),rhsMax =  -1.10484897744558E+02  1.20938561947867E+00
(PID.TID 0000.0001)  ploadbar=  1.01165457468054E+05
 cg2d: Sum(rhs),rhsMax =  -1.10147401427935E+02  1.21347685617612E+00
(PID.TID 0000.0001)  ploadbar=  1.01165713624719E+05
 cg2d: Sum(rhs),rhsMax =  -1.10798162766323E+02  1.20674661773568E+00
(PID.TID 0000.0001)  ploadbar=  1.01165969781384E+05
 cg2d: Sum(rhs),rhsMax =  -1.11798140621290E+02  1.19633242153373E+00
(PID.TID 0000.0001)  ploadbar=  1.01166204440021E+05
 cg2d: Sum(rhs),rhsMax =  -1.12238847739298E+02  1.19199744800126E+00
(PID.TID 0000.0001)  ploadbar=  1.01166439098658E+05
 cg2d: Sum(rhs),rhsMax =  -1.12390586510547E+02  1.19073550613296E+00
(PID.TID 0000.0001)  ploadbar=  1.01166673757295E+05
 cg2d: Sum(rhs),rhsMax =  -1.11858182871860E+02  1.19673733391594E+00
(PID.TID 0000.0001)  ploadbar=  1.01166908415932E+05
 cg2d: Sum(rhs),rhsMax =  -1.10702847008449E+02  1.20954947311532E+00
(PID.TID 0000.0001)  ploadbar=  1.01167143074569E+05
 cg2d: Sum(rhs),rhsMax =  -1.09440058793249E+02  1.22381644500579E+00
(PID.TID 0000.0001)  ploadbar=  1.01167377733206E+05
 cg2d: Sum(rhs),rhsMax =  -1.08125506633572E+02  1.23898269427375E+00
(PID.TID 0000.0001)  ploadbar=  1.01167566848220E+05
 cg2d: Sum(rhs),rhsMax =  -1.06782074663071E+02  1.25483368205754E+00
(PID.TID 0000.0001)  ploadbar=  1.01167755963235E+05
 cg2d: Sum(rhs),rhsMax =  -1.05412735072535E+02  1.27137210049943E+00
(PID.TID 0000.0001)  ploadbar=  1.01167945078249E+05
 cg2d: Sum(rhs),rhsMax =  -1.04045781562698E+02  1.28828618076806E+00
(PID.TID 0000.0001)  ploadbar=  1.01168134193263E+05
 cg2d: Sum(rhs),rhsMax =  -1.02724550058327E+02  1.30503969734359E+00
(PID.TID 0000.0001)  ploadbar=  1.01168323308278E+05
 cg2d: Sum(rhs),rhsMax =  -1.01557906268048E+02  1.32018699371720E+00
(PID.TID 0000.0001)  ploadbar=  1.01168512423292E+05
 cg2d: Sum(rhs),rhsMax =  -1.00665992641992E+02  1.33206472793438E+00
(PID.TID 0000.0001)  ploadbar=  1.01169562519473E+05
 cg2d: Sum(rhs),rhsMax =  -1.00191467388871E+02  1.33857662340225E+00
(PID.TID 0000.0001)  ploadbar=  1.01170612615655E+05
 cg2d: Sum(rhs),rhsMax =  -1.00132569586730E+02  1.33958760095609E+00
(PID.TID 0000.0001)  ploadbar=  1.01171662711836E+05
 cg2d: Sum(rhs),rhsMax =  -1.01993956111817E+02  1.31537777465486E+00
(PID.TID 0000.0001)  ploadbar=  1.01172712808017E+05
 cg2d: Sum(rhs),rhsMax =  -1.04278084110886E+02  1.28681662291603E+00
(PID.TID 0000.0001)  ploadbar=  1.01173762904199E+05
 cg2d: Sum(rhs),rhsMax =  -1.07044437495906E+02  1.25382431429374E+00
(PID.TID 0000.0001)  ploadbar=  1.01174813000380E+05
 cg2d: Sum(rhs),rhsMax =  -1.10565536426234E+02  1.21417333020244E+00
(PID.TID 0000.0001)  ploadbar=  1.01175247032545E+05
 cg2d: Sum(rhs),rhsMax =  -1.14541188324014E+02  1.17231977958787E+00
(PID.TID 0000.0001)  ploadbar=  1.01175681064710E+05
 cg2d: Sum(rhs),rhsMax =  -1.15428285266460E+02  1.16362024486659E+00
(PID.TID 0000.0001)  ploadbar=  1.01176115096875E+05
 cg2d: Sum(rhs),rhsMax =  -1.12885557662389E+02  1.19017036441076E+00
(PID.TID 0000.0001)  ploadbar=  1.01176549129041E+05
 cg2d: Sum(rhs),rhsMax =  -1.10671426337718E+02  1.21435082529867E+00
(PID.TID 0000.0001)  ploadbar=  1.01176983161206E+05
 cg2d: Sum(rhs),rhsMax =  -1.08809129540924E+02  1.23553375017789E+00
(PID.TID 0000.0001)  ploadbar=  1.01177417193371E+05
 cg2d: Sum(rhs),rhsMax =  -1.07398151187947E+02  1.25216037662711E+00
(PID.TID 0000.0001)  ploadbar=  1.01177460220631E+05
 cg2d: Sum(rhs),rhsMax =  -1.06200778217176E+02  1.26666574880502E+00
(PID.TID 0000.0001)  ploadbar=  1.01177503247891E+05
 cg2d: Sum(rhs),rhsMax =  -1.05130161914579E+02  1.27994850833541E+00
(PID.TID 0000.0001)  ploadbar=  1.01177546275151E+05
 cg2d: Sum(rhs),rhsMax =  -1.04111382504641E+02  1.29285273902687E+00
(PID.TID 0000.0001)  ploadbar=  1.01177589302411E+05
 cg2d: Sum(rhs),rhsMax =  -1.03158346796176E+02  1.30517360315596E+00
(PID.TID 0000.0001)  ploadbar=  1.01177632329671E+05
 cg2d: Sum(rhs),rhsMax =  -1.02324959835501E+02  1.31617824148510E+00
(PID.TID 0000.0001)  ploadbar=  1.01177675356931E+05
 cg2d: Sum(rhs),rhsMax =  -1.01633233847990E+02  1.32549161723794E+00
(PID.TID 0000.0001)  ploadbar=  1.01177461613671E+05
 cg2d: Sum(rhs),rhsMax =  -1.01072006455102E+02  1.33318483395351E+00
(PID.TID 0000.0001)  ploadbar=  1.01177247870411E+05
 cg2d: Sum(rhs),rhsMax =  -1.00676575366568E+02  1.33873267408710E+00
(PID.TID 0000.0001)  ploadbar=  1.01177034127151E+05
 cg2d: Sum(rhs),rhsMax =  -1.00490636233258E+02  1.34149855422790E+00
(PID.TID 0000.0001)  ploadbar=  1.01176820383891E+05
 cg2d: Sum(rhs),rhsMax =  -1.00551840092361E+02  1.34094865982135E+00
(PID.TID 0000.0001)  ploadbar=  1.01176606640631E+05
 cg2d: Sum(rhs),rhsMax =  -1.00762268198669E+02  1.33839087747764E+00
(PID.TID 0000.0001)  ploadbar=  1.01176392897371E+05
 cg2d: Sum(rhs),rhsMax =  -1.01116621338627E+02  1.33397815989568E+00
(PID.TID 0000.0001)  ploadbar=  1.01176269949370E+05
 cg2d: Sum(rhs),rhsMax =  -1.01593901884437E+02  1.32802165732672E+00
(PID.TID 0000.0001)  ploadbar=  1.01176147001370E+05
 cg2d: Sum(rhs),rhsMax =  -1.02186169736520E+02  1.32066837398777E+00
(PID.TID 0000.0001)  ploadbar=  1.01176024053369E+05
 cg2d: Sum(rhs),rhsMax =  -1.02872473010491E+02  1.31223415950663E+00
(PID.TID 0000.0001)  ploadbar=  1.01175901105368E+05
 cg2d: Sum(rhs),rhsMax =  -1.03630231359888E+02  1.30304897137760E+00
(PID.TID 0000.0001)  ploadbar=  1.01175778157368E+05
 cg2d: Sum(rhs),rhsMax =  -1.04446485794684E+02  1.29330583748465E+00
(PID.TID 0000.0001)  ploadbar=  1.01175655209367E+05
 cg2d: Sum(rhs),rhsMax =  -1.05296433681248E+02  1.28331109759354E+00
(PID.TID 0000.0001)  ploadbar=  1.01175218792331E+05
 cg2d: Sum(rhs),rhsMax =  -1.06191078808730E+02  1.27294753421423E+00
(PID.TID 0000.0001)  ploadbar=  1.01174782375295E+05
 cg2d: Sum(rhs),rhsMax =  -1.07123858612605E+02  1.26231564567878E+00
(PID.TID 0000.0001)  ploadbar=  1.01174345958258E+05
 cg2d: Sum(rhs),rhsMax =  -1.08105696243021E+02  1.25130666845302E+00
(PID.TID 0000.0001)  ploadbar=  1.01173909541222E+05
 cg2d: Sum(rhs),rhsMax =  -1.09142719884793E+02  1.23987646821513E+00
(PID.TID 0000.0001)  ploadbar=  1.01173473124186E+05
 cg2d: Sum(rhs),rhsMax =  -1.10242579414179E+02  1.22796853704640E+00
(PID.TID 0000.0001)  ploadbar=  1.01173036707150E+05
 cg2d: Sum(rhs),rhsMax =  -1.11339020712732E+02  1.21632947432461E+00
(PID.TID 0000.0001)  ploadbar=  1.01172434636312E+05
 cg2d: Sum(rhs),rhsMax =  -1.12447758369333E+02  1.20478116259037E+00
(PID.TID 0000.0001)  ploadbar=  1.01171832565474E+05
 cg2d: Sum(rhs),rhsMax =  -1.12743437545920E+02  1.20206148734785E+00
(PID.TID 0000.0001)  ploadbar=  1.01171230494635E+05
 cg2d: Sum(rhs),rhsMax =  -1.10502216902908E+02  1.22688930424260E+00
(PID.TID 0000.0001)  ploadbar=  1.01170628423797E+05
 cg2d: Sum(rhs),rhsMax =  -1.08099266769282E+02  1.25461773516695E+00
(PID.TID 0000.0001)  ploadbar=  1.01170026352959E+05
 cg2d: Sum(rhs),rhsMax =  -1.05537252453153E+02  1.28553861663085E+00
(PID.TID 0000.0001)  ploadbar=  1.01169424282120E+05
 cg2d: Sum(rhs),rhsMax =  -1.03303326458449E+02  1.31378626748830E+00
(PID.TID 0000.0001)  ploadbar=  1.01168482885296E+05
 cg2d: Sum(rhs),rhsMax =  -1.01275370987838E+02  1.34052490005736E+00
(PID.TID 0000.0001)  ploadbar=  1.01167541488472E+05
 cg2d: Sum(rhs),rhsMax =  -9.95039963458619E+01  1.36480324880041E+00
(PID.TID 0000.0001)  ploadbar=  1.01166600091648E+05
 cg2d: Sum(rhs),rhsMax =  -9.79836998123848E+01  1.38637501254050E+00
(PID.TID 0000.0001)  ploadbar=  1.01165658694824E+05
 cg2d: Sum(rhs),rhsMax =  -9.66772268607663E+01  1.40548655335757E+00
(PID.TID 0000.0001)  ploadbar=  1.01164717298000E+05
 cg2d: Sum(rhs),rhsMax =  -9.55562890213974E+01  1.42232758700984E+00
(PID.TID 0000.0001)  ploadbar=  1.01163775901176E+05
 cg2d: Sum(rhs),rhsMax =  -9.48152044755240E+01  1.43381710038576E+00
(PID.TID 0000.0001)  ploadbar=  1.01162673587232E+05
 cg2d: Sum(rhs),rhsMax =  -9.42239288627435E+01  1.44320629826139E+00
(PID.TID 0000.0001)  ploadbar=  1.01161571273288E+05
 cg2d: Sum(rhs),rhsMax =  -9.37539161884050E+01  1.45085199173176E+00
(PID.TID 0000.0001)  ploadbar=  1.01160468959344E+05
 cg2d: Sum(rhs),rhsMax =  -9.34970793912270E+01  1.45526670120942E+00
(PID.TID 0000.0001)  ploadbar=  1.01159366645400E+05
 cg2d: Sum(rhs),rhsMax =  -9.34808712653421E+01  1.45596573487879E+00
(PID.TID 0000.0001)  ploadbar=  1.01158264331456E+05
 cg2d: Sum(rhs),rhsMax =  -9.37370348776139E+01  1.45244928877822E+00
(PID.TID 0000.0001)  ploadbar=  1.01157162017511E+05
 cg2d: Sum(rhs),rhsMax =  -9.42705463573006E+01  1.44471060083638E+00
(PID.TID 0000.0001)  ploadbar=  1.01155369734777E+05
 cg2d: Sum(rhs),rhsMax =  -9.51911277231368E+01  1.43123387456569E+00
(PID.TID 0000.0001)  ploadbar=  1.01153577452043E+05
 cg2d: Sum(rhs),rhsMax =  -9.60741130900729E+01  1.41858645033015E+00
(PID.TID 0000.0001)  ploadbar=  1.01151785169309E+05
 cg2d: Sum(rhs),rhsMax =  -9.69484366879714E+01  1.40631226101628E+00
(PID.TID 0000.0001)  ploadbar=  1.01149992886575E+05
 cg2d: Sum(rhs),rhsMax =  -9.77535888178765E+01  1.39526105849685E+00
(PID.TID 0000.0001)  ploadbar=  1.01148200603841E+05
 cg2d: Sum(rhs),rhsMax =  -9.84517211192036E+01  1.38591053277929E+00
(PID.TID 0000.0001)  ploadbar=  1.01146408321107E+05
 cg2d: Sum(rhs),rhsMax =  -9.89921210445095E+01  1.37887453100385E+00
(PID.TID 0000.0001)  ploadbar=  1.01145380892520E+05
 cg2d: Sum(rhs),rhsMax =  -9.93870570867760E+01  1.37391284898908E+00
(PID.TID 0000.0001)  ploadbar=  1.01144353463933E+05
 cg2d: Sum(rhs),rhsMax =  -9.96070094330143E+01  1.37138361378146E+00
(PID.TID 0000.0001)  ploadbar=  1.01143326035346E+05
 cg2d: Sum(rhs),rhsMax =  -9.98193686310116E+01  1.36895781387860E+00
(PID.TID 0000.0001)  ploadbar=  1.01142298606760E+05
 cg2d: Sum(rhs),rhsMax =  -1.00184104429891E+02  1.36445048133809E+00
(PID.TID 0000.0001)  ploadbar=  1.01141271178173E+05
 cg2d: Sum(rhs),rhsMax =  -1.00737900791701E+02  1.35741076509540E+00
(PID.TID 0000.0001)  ploadbar=  1.01140243749586E+05
 cg2d: Sum(rhs),rhsMax =  -1.01487486253090E+02  1.34781611366807E+00
(PID.TID 0000.0001)  ploadbar=  1.01139365022062E+05
 cg2d: Sum(rhs),rhsMax =  -1.02498011639543E+02  1.33492931022465E+00
(PID.TID 0000.0001)  ploadbar=  1.01138486294538E+05
 cg2d: Sum(rhs),rhsMax =  -1.03865265511270E+02  1.31772545227214E+00
(PID.TID 0000.0001)  ploadbar=  1.01137607567014E+05
 cg2d: Sum(rhs),rhsMax =  -1.05563624196667E+02  1.29685947727222E+00
(PID.TID 0000.0001)  ploadbar=  1.01136728839490E+05
 cg2d: Sum(rhs),rhsMax =  -1.07599443550793E+02  1.27262315975388E+00
(PID.TID 0000.0001)  ploadbar=  1.01135850111966E+05
 cg2d: Sum(rhs),rhsMax =  -1.09928041574075E+02  1.24593062699107E+00
(PID.TID 0000.0001)  ploadbar=  1.01134971384442E+05
 cg2d: Sum(rhs),rhsMax =  -1.12510572324883E+02  1.21759526713622E+00
(PID.TID 0000.0001)  ploadbar=  1.01134475751697E+05
 cg2d: Sum(rhs),rhsMax =  -1.15473486629143E+02  1.18661545703618E+00
(PID.TID 0000.0001)  ploadbar=  1.01133980118953E+05
 cg2d: Sum(rhs),rhsMax =  -1.18777518860933E+02  1.15386585354623E+00
(PID.TID 0000.0001)  ploadbar=  1.01133484486208E+05
 cg2d: Sum(rhs),rhsMax =  -1.22350861933414E+02  1.12042040824596E+00
(PID.TID 0000.0001)  ploadbar=  1.01132988853464E+05
 cg2d: Sum(rhs),rhsMax =  -1.26186775312459E+02  1.08661050408889E+00
(PID.TID 0000.0001)  ploadbar=  1.01132493220719E+05
 cg2d: Sum(rhs),rhsMax =  -1.30266744699635E+02  1.05282335531927E+00
(PID.TID 0000.0001)  ploadbar=  1.01131997587975E+05
 cg2d: Sum(rhs),rhsMax =  -1.34384019970823E+02  1.02081462869086E+00
(PID.TID 0000.0001)  ploadbar=  1.01132587970718E+05
 cg2d: Sum(rhs),rhsMax =  -1.36064762515187E+02  1.00845712246898E+00
(PID.TID 0000.0001)  ploadbar=  1.01133178353461E+05
 cg2d: Sum(rhs),rhsMax =  -1.36273858986641E+02  1.00716910112863E+00
(PID.TID 0000.0001)  ploadbar=  1.01133768736204E+05
 cg2d: Sum(rhs),rhsMax =  -1.36348226402318E+02  1.00688533269371E+00
(PID.TID 0000.0001)  ploadbar=  1.01134359118947E+05
 cg2d: Sum(rhs),rhsMax =  -1.36287200694417E+02  1.00760702224281E+00
(PID.TID 0000.0001)  ploadbar=  1.01134949501690E+05
 cg2d: Sum(rhs),rhsMax =  -1.36146681842274E+02  1.00892268990760E+00
(PID.TID 0000.0001)  ploadbar=  1.01135539884433E+05
 cg2d: Sum(rhs),rhsMax =  -1.35892782661823E+02  1.01107495338640E+00
(PID.TID 0000.0001)  ploadbar=  1.01135289585549E+05
 cg2d: Sum(rhs),rhsMax =  -1.35617030826916E+02  1.01339011581944E+00
(PID.TID 0000.0001)  ploadbar=  1.01135039286664E+05
 cg2d: Sum(rhs),rhsMax =  -1.35323403795438E+02  1.01583842529326E+00
(PID.TID 0000.0001)  ploadbar=  1.01134788987779E+05
 cg2d: Sum(rhs),rhsMax =  -1.35050791277652E+02  1.01812701099647E+00
(PID.TID 0000.0001)  ploadbar=  1.01134538688895E+05
 cg2d: Sum(rhs),rhsMax =  -1.34816901829169E+02  1.02011708447291E+00
(PID.TID 0000.0001)  ploadbar=  1.01134288390010E+05
 cg2d: Sum(rhs),rhsMax =  -1.34661590417363E+02  1.02150114161721E+00
(PID.TID 0000.0001)  ploadbar=  1.01134038091126E+05
 cg2d: Sum(rhs),rhsMax =  -1.34503031577441E+02  1.02290090741451E+00
(PID.TID 0000.0001)  ploadbar=  1.01133742719410E+05
 cg2d: Sum(rhs),rhsMax =  -1.34469808915205E+02  1.02333497615538E+00
(PID.TID 0000.0001)  ploadbar=  1.01133447347695E+05
 cg2d: Sum(rhs),rhsMax =  -1.34459668468306E+02  1.02357804959546E+00
(PID.TID 0000.0001)  ploadbar=  1.01133151975980E+05
 cg2d: Sum(rhs),rhsMax =  -1.34324647856251E+02  1.02475606955173E+00
(PID.TID 0000.0001)  ploadbar=  1.01132856604265E+05
 cg2d: Sum(rhs),rhsMax =  -1.34174566404385E+02  1.02603274402417E+00
(PID.TID 0000.0001)  ploadbar=  1.01132561232550E+05
 cg2d: Sum(rhs),rhsMax =  -1.34213802151772E+02  1.02584281702319E+00
(PID.TID 0000.0001)  ploadbar=  1.01132265860835E+05
 cg2d: Sum(rhs),rhsMax =  -1.34391693294104E+02  1.02462111541540E+00
(PID.TID 0000.0001)  ploadbar=  1.01132363408163E+05
 cg2d: Sum(rhs),rhsMax =  -1.34686626966176E+02  1.02253782570819E+00
(PID.TID 0000.0001)  ploadbar=  1.01132460955491E+05
 cg2d: Sum(rhs),rhsMax =  -1.35139411661029E+02  1.01929453999229E+00
(PID.TID 0000.0001)  ploadbar=  1.01132558502819E+05
 cg2d: Sum(rhs),rhsMax =  -1.34964848580665E+02  1.02081820966846E+00
(PID.TID 0000.0001)  ploadbar=  1.01132656050146E+05
 cg2d: Sum(rhs),rhsMax =  -1.33780608149021E+02  1.03008263148291E+00
(PID.TID 0000.0001)  ploadbar=  1.01132753597474E+05
 cg2d: Sum(rhs),rhsMax =  -1.32508896852581E+02  1.04021669090411E+00
(PID.TID 0000.0001)  ploadbar=  1.01132851144802E+05
 cg2d: Sum(rhs),rhsMax =  -1.31425190480100E+02  1.04905150343145E+00
(PID.TID 0000.0001)  ploadbar=  1.01132299186599E+05
 cg2d: Sum(rhs),rhsMax =  -1.30383089934609E+02  1.05770159554312E+00
(PID.TID 0000.0001)  ploadbar=  1.01131747228395E+05
 cg2d: Sum(rhs),rhsMax =  -1.29392648904384E+02  1.06607052626821E+00
(PID.TID 0000.0001)  ploadbar=  1.01131195270192E+05
 cg2d: Sum(rhs),rhsMax =  -1.28519984917357E+02  1.07358726009726E+00
(PID.TID 0000.0001)  ploadbar=  1.01130643311989E+05
 cg2d: Sum(rhs),rhsMax =  -1.27829151838406E+02  1.07967114255114E+00
(PID.TID 0000.0001)  ploadbar=  1.01130091353785E+05
 cg2d: Sum(rhs),rhsMax =  -1.27467301622665E+02  1.08302016516942E+00
(PID.TID 0000.0001)  ploadbar=  1.01129539395582E+05
 cg2d: Sum(rhs),rhsMax =  -1.27334242339689E+02  1.08443199507630E+00
(PID.TID 0000.0001)  ploadbar=  1.01129536080050E+05
 cg2d: Sum(rhs),rhsMax =  -1.27350250940646E+02  1.08457021350892E+00
(PID.TID 0000.0001)  ploadbar=  1.01129532764519E+05
 cg2d: Sum(rhs),rhsMax =  -1.27433274658959E+02  1.08413185577816E+00
(PID.TID 0000.0001)  ploadbar=  1.01129529448987E+05
 cg2d: Sum(rhs),rhsMax =  -1.27478600433657E+02  1.08400644458026E+00
(PID.TID 0000.0001)  ploadbar=  1.01129526133456E+05
 cg2d: Sum(rhs),rhsMax =  -1.27483974698097E+02  1.08421222960273E+00
(PID.TID 0000.0001)  ploadbar=  1.01129522817924E+05
 cg2d: Sum(rhs),rhsMax =  -1.27634383351370E+02  1.08317571723494E+00
(PID.TID 0000.0001)  ploadbar=  1.01129519502393E+05
 cg2d: Sum(rhs),rhsMax =  -1.27971217846086E+02  1.08054823297766E+00
(PID.TID 0000.0001)  ploadbar=  1.01129214570220E+05
 cg2d: Sum(rhs),rhsMax =  -1.28496199173557E+02  1.07634001190615E+00
(PID.TID 0000.0001)  ploadbar=  1.01128909638047E+05
 cg2d: Sum(rhs),rhsMax =  -1.29116532504675E+02  1.07135760487893E+00
(PID.TID 0000.0001)  ploadbar=  1.01128604705875E+05
 cg2d: Sum(rhs),rhsMax =  -1.28971564805970E+02  1.07273298075843E+00
(PID.TID 0000.0001)  ploadbar=  1.01128299773702E+05
 cg2d: Sum(rhs),rhsMax =  -1.27806414208862E+02  1.08266658200539E+00
(PID.TID 0000.0001)  ploadbar=  1.01127994841529E+05
 cg2d: Sum(rhs),rhsMax =  -1.26687972285443E+02  1.09236051411615E+00
(PID.TID 0000.0001)  ploadbar=  1.01127689909357E+05
 cg2d: Sum(rhs),rhsMax =  -1.25687714989379E+02  1.10122791604334E+00
(PID.TID 0000.0001)  ploadbar=  1.01127765027032E+05
 cg2d: Sum(rhs),rhsMax =  -1.24978084785943E+02  1.10769023769651E+00
(PID.TID 0000.0001)  ploadbar=  1.01127840144708E+05
 cg2d: Sum(rhs),rhsMax =  -1.24551376167246E+02  1.11172885810981E+00
(PID.TID 0000.0001)  ploadbar=  1.01127915262383E+05
 cg2d: Sum(rhs),rhsMax =  -1.24066792712225E+02  1.11634802915224E+00
(PID.TID 0000.0001)  ploadbar=  1.01127990380058E+05
 cg2d: Sum(rhs),rhsMax =  -1.23252055611769E+02  1.12403554189237E+00
(PID.TID 0000.0001)  ploadbar=  1.01128065497734E+05
 cg2d: Sum(rhs),rhsMax =  -1.22120306426822E+02  1.13478896742940E+00
(PID.TID 0000.0001)  ploadbar=  1.01128140615409E+05
 cg2d: Sum(rhs),rhsMax =  -1.21077995081917E+02  1.14490552779522E+00
(PID.TID 0000.0001)  ploadbar=  1.01128133101405E+05
 cg2d: Sum(rhs),rhsMax =  -1.20169603807950E+02  1.15391799208869E+00
(PID.TID 0000.0001)  ploadbar=  1.01128125587400E+05
 cg2d: Sum(rhs),rhsMax =  -1.19553239390130E+02  1.16023207148234E+00
(PID.TID 0000.0001)  ploadbar=  1.01128118073396E+05
 cg2d: Sum(rhs),rhsMax =  -1.19156126220433E+02  1.16446842527343E+00
(PID.TID 0000.0001)  ploadbar=  1.01128110559392E+05
 cg2d: Sum(rhs),rhsMax =  -1.18795471001929E+02  1.16837547072872E+00
(PID.TID 0000.0001)  ploadbar=  1.01128103045388E+05
 cg2d: Sum(rhs),rhsMax =  -1.18315251108485E+02  1.17348981670796E+00
(PID.TID 0000.0001)  ploadbar=  1.01128095531383E+05
 cg2d: Sum(rhs),rhsMax =  -1.17786355623752E+02  1.17912698577682E+00
(PID.TID 0000.0001)  ploadbar=  1.01128168838529E+05
 cg2d: Sum(rhs),rhsMax =  -1.17257243894176E+02  1.18481145956578E+00
(PID.TID 0000.0001)  ploadbar=  1.01128242145676E+05
 cg2d: Sum(rhs),rhsMax =  -1.16845813656799E+02  1.18934169043456E+00
(PID.TID 0000.0001)  ploadbar=  1.01128315452822E+05
 cg2d: Sum(rhs),rhsMax =  -1.16532047939158E+02  1.19289485907340E+00
(PID.TID 0000.0001)  ploadbar=  1.01128388759968E+05
 cg2d: Sum(rhs),rhsMax =  -1.16297035994673E+02  1.19564622117638E+00
(PID.TID 0000.0001)  ploadbar=  1.01128462067114E+05
 cg2d: Sum(rhs),rhsMax =  -1.16134428609310E+02  1.19764922395417E+00
(PID.TID 0000.0001)  ploadbar=  1.01128535374261E+05
 cg2d: Sum(rhs),rhsMax =  -1.16073060579148E+02  1.19858892392960E+00
(PID.TID 0000.0001)  ploadbar=  1.01128297275685E+05
 cg2d: Sum(rhs),rhsMax =  -1.16083908868029E+02  1.19876040467373E+00
(PID.TID 0000.0001)  ploadbar=  1.01128059177109E+05
 cg2d: Sum(rhs),rhsMax =  -1.16096970451865E+02  1.19888465903785E+00
(PID.TID 0000.0001)  ploadbar=  1.01127821078534E+05
 cg2d: Sum(rhs),rhsMax =  -1.16125131311583E+02  1.19883013183530E+00
(PID.TID 0000.0001)  ploadbar=  1.01127582979958E+05
 cg2d: Sum(rhs),rhsMax =  -1.16182355134708E+02  1.19845276952449E+00
(PID.TID 0000.0001)  ploadbar=  1.01127344881383E+05
 cg2d: Sum(rhs),rhsMax =  -1.16261815104593E+02  1.19782040582136E+00
(PID.TID 0000.0001)  ploadbar=  1.01127106782807E+05
 cg2d: Sum(rhs),rhsMax =  -1.16360363769642E+02  1.19701353844530E+00
(PID.TID 0000.0001)  ploadbar=  1.01126666124598E+05
 cg2d: Sum(rhs),rhsMax =  -1.16509633206853E+02  1.19570718384276E+00
(PID.TID 0000.0001)  ploadbar=  1.01126225466388E+05
 cg2d: Sum(rhs),rhsMax =  -1.16692549392488E+02  1.19407934967553E+00
(PID.TID 0000.0001)  ploadbar=  1.01125784808178E+05
 cg2d: Sum(rhs),rhsMax =  -1.16911242518870E+02  1.19211262590695E+00
(PID.TID 0000.0001)  ploadbar=  1.01125344149969E+05
 cg2d: Sum(rhs),rhsMax =  -1.17154047540854E+02  1.18992797390376E+00
(PID.TID 0000.0001)  ploadbar=  1.01124903491759E+05
 cg2d: Sum(rhs),rhsMax =  -1.17421684518663E+02  1.18752005544791E+00
(PID.TID 0000.0001)  ploadbar=  1.01124462833550E+05
 cg2d: Sum(rhs),rhsMax =  -1.17678259173086E+02  1.18523087029209E+00
(PID.TID 0000.0001)  ploadbar=  1.01123684668827E+05
 cg2d: Sum(rhs),rhsMax =  -1.17946557755280E+02  1.18282819205214E+00
(PID.TID 0000.0001)  ploadbar=  1.01122906504103E+05
 cg2d: Sum(rhs),rhsMax =  -1.18234837421358E+02  1.18023022962264E+00
(PID.TID 0000.0001)  ploadbar=  1.01122128339380E+05
 cg2d: Sum(rhs),rhsMax =  -1.18521614376882E+02  1.17765294465459E+00
(PID.TID 0000.0001)  ploadbar=  1.01121350174657E+05
 cg2d: Sum(rhs),rhsMax =  -1.18798081047832E+02  1.17518295851809E+00
(PID.TID 0000.0001)  ploadbar=  1.01120572009934E+05
 cg2d: Sum(rhs),rhsMax =  -1.19052500496679E+02  1.17293375627653E+00
(PID.TID 0000.0001)  ploadbar=  1.01119793845211E+05
 cg2d: Sum(rhs),rhsMax =  -1.19375622512328E+02  1.17002740070346E+00
(PID.TID 0000.0001)  ploadbar=  1.01119781424811E+05
 cg2d: Sum(rhs),rhsMax =  -1.19710554821625E+02  1.16702617167852E+00
(PID.TID 0000.0001)  ploadbar=  1.01119769004412E+05
 cg2d: Sum(rhs),rhsMax =  -1.20027438480011E+02  1.16422174786477E+00
(PID.TID 0000.0001)  ploadbar=  1.01119756584013E+05
 cg2d: Sum(rhs),rhsMax =  -1.20340996661084E+02  1.16146871631863E+00
(PID.TID 0000.0001)  ploadbar=  1.01119744163613E+05
 cg2d: Sum(rhs),rhsMax =  -1.20657594303335E+02  1.15870491324737E+00
(PID.TID 0000.0001)  ploadbar=  1.01119731743214E+05
 cg2d: Sum(rhs),rhsMax =  -1.20978838227658E+02  1.15591427341325E+00
(PID.TID 0000.0001)  ploadbar=  1.01119719322815E+05
 cg2d: Sum(rhs),rhsMax =  -1.21236737774667E+02  1.15371342658644E+00
(PID.TID 0000.0001)  ploadbar=  1.01118162186424E+05
 cg2d: Sum(rhs),rhsMax =  -1.21525789568031E+02  1.15119857773043E+00
(PID.TID 0000.0001)  ploadbar=  1.01116605050032E+05
 cg2d: Sum(rhs),rhsMax =  -1.21823868525585E+02  1.14858263876934E+00
(PID.TID 0000.0001)  ploadbar=  1.01115047913641E+05
 cg2d: Sum(rhs),rhsMax =  -1.22143427946185E+02  1.14574956752627E+00
(PID.TID 0000.0001)  ploadbar=  1.01113490777249E+05
 cg2d: Sum(rhs),rhsMax =  -1.22497123667713E+02  1.14258454712733E+00
(PID.TID 0000.0001)  ploadbar=  1.01111933640858E+05
 cg2d: Sum(rhs),rhsMax =  -1.22874117071780E+02  1.13919315245470E+00
(PID.TID 0000.0001)  ploadbar=  1.01110376504466E+05
 cg2d: Sum(rhs),rhsMax =  -1.23251890855282E+02  1.13583934721761E+00
(PID.TID 0000.0001)  ploadbar=  1.01109610311183E+05
 cg2d: Sum(rhs),rhsMax =  -1.23671720843435E+02  1.13214398076056E+00
(PID.TID 0000.0001)  ploadbar=  1.01108844117899E+05
 cg2d: Sum(rhs),rhsMax =  -1.24127207538209E+02  1.12817233198398E+00
(PID.TID 0000.0001)  ploadbar=  1.01108077924615E+05
 cg2d: Sum(rhs),rhsMax =  -1.24601212887463E+02  1.12408493823591E+00
(PID.TID 0000.0001)  ploadbar=  1.01107311731331E+05
 cg2d: Sum(rhs),rhsMax =  -1.25093873167876E+02  1.11988429343163E+00
(PID.TID 0000.0001)  ploadbar=  1.01106545538047E+05
 cg2d: Sum(rhs),rhsMax =  -1.25623087633171E+02  1.11541383971699E+00
(PID.TID 0000.0001)  ploadbar=  1.01105779344763E+05
 cg2d: Sum(rhs),rhsMax =  -1.25995822130384E+02  1.11237461721501E+00
(PID.TID 0000.0001)  ploadbar=  1.01105302846080E+05
 cg2d: Sum(rhs),rhsMax =  -1.26386808933134E+02  1.10920550941109E+00
(PID.TID 0000.0001)  ploadbar=  1.01104826347397E+05
 cg2d: Sum(rhs),rhsMax =  -1.26800927934367E+02  1.10586494863146E+00
(PID.TID 0000.0001)  ploadbar=  1.01104349848713E+05
 cg2d: Sum(rhs),rhsMax =  -1.27195802652864E+02  1.10272248467194E+00
(PID.TID 0000.0001)  ploadbar=  1.01103873350030E+05
 cg2d: Sum(rhs),rhsMax =  -1.27557022233649E+02  1.09989821394446E+00
(PID.TID 0000.0001)  ploadbar=  1.01103396851347E+05
 cg2d: Sum(rhs),rhsMax =  -1.27876214042592E+02  1.09746008208762E+00
(PID.TID 0000.0001)  ploadbar=  1.01102920352664E+05
 cg2d: Sum(rhs),rhsMax =  -1.28140531642502E+02  1.09549757401064E+00
(PID.TID 0000.0001)  ploadbar=  1.01102096366065E+05
 cg2d: Sum(rhs),rhsMax =  -1.28310109780945E+02  1.09434539951411E+00
(PID.TID 0000.0001)  ploadbar=  1.01101272379466E+05
 cg2d: Sum(rhs),rhsMax =  -1.28465615699002E+02  1.09331158035191E+00
(PID.TID 0000.0001)  ploadbar=  1.01100448392866E+05
 cg2d: Sum(rhs),rhsMax =  -1.28610054697443E+02  1.09236896174043E+00
(PID.TID 0000.0001)  ploadbar=  1.01099624406267E+05
 cg2d: Sum(rhs),rhsMax =  -1.28748477158032E+02  1.09147362818383E+00
(PID.TID 0000.0001)  ploadbar=  1.01098800419668E+05
 cg2d: Sum(rhs),rhsMax =  -1.28889625046075E+02  1.09054970173034E+00
(PID.TID 0000.0001)  ploadbar=  1.01097976433069E+05
 cg2d: Sum(rhs),rhsMax =  -1.29080167892974E+02  1.08920094974367E+00
(PID.TID 0000.0001)  ploadbar=  1.01097804362096E+05
 cg2d: Sum(rhs),rhsMax =  -1.29228816242263E+02  1.08819975175532E+00
(PID.TID 0000.0001)  ploadbar=  1.01097632291123E+05
 cg2d: Sum(rhs),rhsMax =  -1.29338767682943E+02  1.08751644345592E+00
(PID.TID 0000.0001)  ploadbar=  1.01097460220150E+05
 cg2d: Sum(rhs),rhsMax =  -1.29423474655459E+02  1.08703672727544E+00
(PID.TID 0000.0001)  ploadbar=  1.01097288149177E+05
 cg2d: Sum(rhs),rhsMax =  -1.29475666388435E+02  1.08681975806964E+00
(PID.TID 0000.0001)  ploadbar=  1.01097116078204E+05
 cg2d: Sum(rhs),rhsMax =  -1.29502136242504E+02  1.08680774104675E+00
(PID.TID 0000.0001)  ploadbar=  1.01096944007231E+05
 cg2d: Sum(rhs),rhsMax =  -1.29546281503644E+02  1.08667782191708E+00
(PID.TID 0000.0001)  ploadbar=  1.01098075457411E+05
 cg2d: Sum(rhs),rhsMax =  -1.29588035727943E+02  1.08659623513800E+00
(PID.TID 0000.0001)  ploadbar=  1.01099206907591E+05
 cg2d: Sum(rhs),rhsMax =  -1.29654278709189E+02  1.08633718219404E+00
(PID.TID 0000.0001)  ploadbar=  1.01100338357771E+05
 cg2d: Sum(rhs),rhsMax =  -1.29761144251558E+02  1.08576502925222E+00
(PID.TID 0000.0001)  ploadbar=  1.01101469807950E+05
 cg2d: Sum(rhs),rhsMax =  -1.29903055982019E+02  1.08492700898992E+00
(PID.TID 0000.0001)  ploadbar=  1.01102601258130E+05
 cg2d: Sum(rhs),rhsMax =  -1.30083588266505E+02  1.08379474330210E+00
(PID.TID 0000.0001)  ploadbar=  1.01103732708310E+05
 cg2d: Sum(rhs),rhsMax =  -1.30361495328552E+02  1.08185588007304E+00
(PID.TID 0000.0001)  ploadbar=  1.01104333407014E+05
 cg2d: Sum(rhs),rhsMax =  -1.30628039158612E+02  1.08001640410624E+00
(PID.TID 0000.0001)  ploadbar=  1.01104934105718E+05
 cg2d: Sum(rhs),rhsMax =  -1.30877983734432E+02  1.07831854767529E+00
(PID.TID 0000.0001)  ploadbar=  1.01105534804422E+05
 cg2d: Sum(rhs),rhsMax =  -1.31107083142325E+02  1.07679597629103E+00
(PID.TID 0000.0001)  ploadbar=  1.01106135503125E+05
 cg2d: Sum(rhs),rhsMax =  -1.31316034791412E+02  1.07544030861476E+00
(PID.TID 0000.0001)  ploadbar=  1.01106736201829E+05
 cg2d: Sum(rhs),rhsMax =  -1.31509305349579E+02  1.07421271769160E+00
(PID.TID 0000.0001)  ploadbar=  1.01107336900533E+05
 cg2d: Sum(rhs),rhsMax =  -1.31787106430364E+02  1.07228921964204E+00
(PID.TID 0000.0001)  ploadbar=  1.01107689395959E+05
 cg2d: Sum(rhs),rhsMax =  -1.32080501758354E+02  1.07023552172445E+00
(PID.TID 0000.0001)  ploadbar=  1.01108041891385E+05
 cg2d: Sum(rhs),rhsMax =  -1.32347452177898E+02  1.06839253306240E+00
(PID.TID 0000.0001)  ploadbar=  1.01108394386810E+05
 cg2d: Sum(rhs),rhsMax =  -1.32595531348135E+02  1.06669647526353E+00
(PID.TID 0000.0001)  ploadbar=  1.01108746882236E+05
 cg2d: Sum(rhs),rhsMax =  -1.32850429794471E+02  1.06493865382900E+00
(PID.TID 0000.0001)  ploadbar=  1.01109099377662E+05
 cg2d: Sum(rhs),rhsMax =  -1.33112634836241E+02  1.06311452789741E+00
(PID.TID 0000.0001)  ploadbar=  1.01109451873087E+05
 cg2d: Sum(rhs),rhsMax =  -1.33338668151691E+02  1.06157384612674E+00
(PID.TID 0000.0001)  ploadbar=  1.01110313077524E+05
 cg2d: Sum(rhs),rhsMax =  -1.33601058523188E+02  1.05973704487846E+00
(PID.TID 0000.0001)  ploadbar=  1.01111174281961E+05
 cg2d: Sum(rhs),rhsMax =  -1.33845901964258E+02  1.05803364596091E+00
(PID.TID 0000.0001)  ploadbar=  1.01112035486398E+05
 cg2d: Sum(rhs),rhsMax =  -1.34080067457184E+02  1.05640752081535E+00
(PID.TID 0000.0001)  ploadbar=  1.01112896690835E+05
 cg2d: Sum(rhs),rhsMax =  -1.34321545173857E+02  1.05471409724168E+00
(PID.TID 0000.0001)  ploadbar=  1.01113757895271E+05
 cg2d: Sum(rhs),rhsMax =  -1.34556177118017E+02  1.05306231212522E+00
(PID.TID 0000.0001)  ploadbar=  1.01114619099708E+05
 cg2d: Sum(rhs),rhsMax =  -1.34727292348970E+02  1.05192924212847E+00
(PID.TID 0000.0001)  ploadbar=  1.01114739719212E+05
 cg2d: Sum(rhs),rhsMax =  -1.34920105102506E+02  1.05064699260502E+00
(PID.TID 0000.0001)  ploadbar=  1.01114860338716E+05
 cg2d: Sum(rhs),rhsMax =  -1.34777483682454E+02  1.05199482033324E+00
(PID.TID 0000.0001)  ploadbar=  1.01114980958220E+05
 cg2d: Sum(rhs),rhsMax =  -1.34401211331610E+02  1.05519053610463E+00
(PID.TID 0000.0001)  ploadbar=  1.01115101577724E+05
 cg2d: Sum(rhs),rhsMax =  -1.34043648985851E+02  1.05826947504773E+00
(PID.TID 0000.0001)  ploadbar=  1.01115222197228E+05
 cg2d: Sum(rhs),rhsMax =  -1.33719108445215E+02  1.06111659767152E+00
(PID.TID 0000.0001)  ploadbar=  1.01115342816732E+05
 cg2d: Sum(rhs),rhsMax =  -1.33393096790528E+02  1.06398100477748E+00
(PID.TID 0000.0001)  ploadbar=  1.01116861453399E+05
 cg2d: Sum(rhs),rhsMax =  -1.33058703263035E+02  1.06691582971544E+00
(PID.TID 0000.0001)  ploadbar=  1.01118380090065E+05
 cg2d: Sum(rhs),rhsMax =  -1.32695816184723E+02  1.07008277336956E+00
(PID.TID 0000.0001)  ploadbar=  1.01119898726732E+05
 cg2d: Sum(rhs),rhsMax =  -1.32317987748707E+02  1.07337464466589E+00
(PID.TID 0000.0001)  ploadbar=  1.01121417363398E+05
 cg2d: Sum(rhs),rhsMax =  -1.31947704357497E+02  1.07660751874052E+00
(PID.TID 0000.0001)  ploadbar=  1.01122936000064E+05
 cg2d: Sum(rhs),rhsMax =  -1.31587357305283E+02  1.07975858446621E+00
(PID.TID 0000.0001)  ploadbar=  1.01124454636731E+05
 cg2d: Sum(rhs),rhsMax =  -1.31178991358899E+02  1.08333171620129E+00
(PID.TID 0000.0001)  ploadbar=  1.01124965374832E+05
 cg2d: Sum(rhs),rhsMax =  -1.30735384401120E+02  1.08722512078823E+00
(PID.TID 0000.0001)  ploadbar=  1.01125476112934E+05
 cg2d: Sum(rhs),rhsMax =  -1.29660856560954E+02  1.09645928668239E+00
(PID.TID 0000.0001)  ploadbar=  1.01125986851036E+05
 cg2d: Sum(rhs),rhsMax =  -1.24224455420716E+02  1.14468147945807E+00
(PID.TID 0000.0001)  ploadbar=  1.01126497589138E+05
 cg2d: Sum(rhs),rhsMax =  -1.19016788002407E+02  1.19502053965988E+00
(PID.TID 0000.0001)  ploadbar=  1.01127008327240E+05
 cg2d: Sum(rhs),rhsMax =  -1.13839063261281E+02  1.24963880907092E+00
(PID.TID 0000.0001)  ploadbar=  1.01127519065342E+05
 cg2d: Sum(rhs),rhsMax =  -1.09388602314137E+02  1.30074093428988E+00
(PID.TID 0000.0001)  ploadbar=  1.01128300688594E+05
 cg2d: Sum(rhs),rhsMax =  -1.05749924298756E+02  1.34574885046273E+00
(PID.TID 0000.0001)  ploadbar=  1.01129082311846E+05
 cg2d: Sum(rhs),rhsMax =  -1.02949848498507E+02  1.38258987267658E+00
(PID.TID 0000.0001)  ploadbar=  1.01129863935098E+05
 cg2d: Sum(rhs),rhsMax =  -1.00931262767460E+02  1.41046416725129E+00
(PID.TID 0000.0001)  ploadbar=  1.01130645558350E+05
 cg2d: Sum(rhs),rhsMax =  -9.95913444633012E+01  1.42964355122282E+00
(PID.TID 0000.0001)  ploadbar=  1.01131427181601E+05
 cg2d: Sum(rhs),rhsMax =  -9.88209354816679E+01  1.44096875565267E+00
(PID.TID 0000.0001)  ploadbar=  1.01132208804853E+05
 cg2d: Sum(rhs),rhsMax =  -9.84243606328365E+01  1.44699327739389E+00
(PID.TID 0000.0001)  ploadbar=  1.01132182170362E+05
 cg2d: Sum(rhs),rhsMax =  -9.81956884939556E+01  1.45061846841259E+00
(PID.TID 0000.0001)  ploadbar=  1.01132155535871E+05
 cg2d: Sum(rhs),rhsMax =  -9.80720394585851E+01  1.45273790642658E+00
(PID.TID 0000.0001)  ploadbar=  1.01132128901380E+05
 cg2d: Sum(rhs),rhsMax =  -9.80817415687631E+01  1.45291813132131E+00
(PID.TID 0000.0001)  ploadbar=  1.01132102266889E+05
 cg2d: Sum(rhs),rhsMax =  -9.82634784582597E+01  1.45058862982308E+00
(PID.TID 0000.0001)  ploadbar=  1.01132075632398E+05
 cg2d: Sum(rhs),rhsMax =  -9.86236197276857E+01  1.44568294402302E+00
(PID.TID 0000.0001)  ploadbar=  1.01132048997907E+05
 cg2d: Sum(rhs),rhsMax =  -9.88508828902337E+01  1.44275423347958E+00
(PID.TID 0000.0001)  ploadbar=  1.01131997698612E+05
 cg2d: Sum(rhs),rhsMax =  -9.90123791803781E+01  1.44080069973541E+00
(PID.TID 0000.0001)      cg2d_init_res =   2.65888367297393E-01
(PID.TID 0000.0001)      cg2d_iters(min,last) =      -1     141
(PID.TID 0000.0001)      cg2d_last_res =   9.97927220952704E-08
(PID.TID 0000.0001) // =======================================================
(PID.TID 0000.0001) // Begin MONITOR dynamic field statistics
(PID.TID 0000.0001) // =======================================================
(PID.TID 0000.0001) %MON time_tsnumber                =                  5256
(PID.TID 0000.0001) %MON time_secondsf                =   1.8921600000000E+07
(PID.TID 0000.0001) %MON dynstat_eta_max              =   1.2822657102430E+00
(PID.TID 0000.0001) %MON dynstat_eta_min              =  -5.1005433824236E+00
(PID.TID 0000.0001) %MON dynstat_eta_mean             =   7.2203197667442E-02
(PID.TID 0000.0001) %MON dynstat_eta_sd               =   7.0449933157592E-01
(PID.TID 0000.0001) %MON dynstat_eta_del2             =   2.3208218917186E-04
(PID.TID 0000.0001) %MON dynstat_uvel_max             =   1.1075864044238E+00
(PID.TID 0000.0001) %MON dynstat_uvel_min             =  -6.3813887065764E-01
(PID.TID 0000.0001) %MON dynstat_uvel_mean            =   1.4410672944394E-03
(PID.TID 0000.0001) %MON dynstat_uvel_sd              =   2.0220097624984E-02
(PID.TID 0000.0001) %MON dynstat_uvel_del2            =   9.0827331297481E-06
(PID.TID 0000.0001) %MON dynstat_vvel_max             =   1.0943676326282E+00
(PID.TID 0000.0001) %MON dynstat_vvel_min             =  -1.0664387169951E+00
(PID.TID 0000.0001) %MON dynstat_vvel_mean            =   1.2379750760253E-03
(PID.TID 0000.0001) %MON dynstat_vvel_sd              =   2.2220508421353E-02
(PID.TID 0000.0001) %MON dynstat_vvel_del2            =   9.5845936969192E-06
(PID.TID 0000.0001) %MON dynstat_wvel_max             =   3.6070670525598E-04
(PID.TID 0000.0001) %MON dynstat_wvel_min             =  -8.4292346052108E-04
(PID.TID 0000.0001) %MON dynstat_wvel_mean            =   3.1580902198672E-09
(PID.TID 0000.0001) %MON dynstat_wvel_sd              =   2.2424878144972E-05
(PID.TID 0000.0001) %MON dynstat_wvel_del2            =   1.5665669563352E-08
(PID.TID 0000.0001) %MON dynstat_theta_max            =   3.3562229287591E+01
(PID.TID 0000.0001) %MON dynstat_theta_min            =  -2.1637982808158E+00
(PID.TID 0000.0001) %MON dynstat_theta_mean           =   3.5774351269769E+00
(PID.TID 0000.0001) %MON dynstat_theta_sd             =   4.4206569128424E+00
(PID.TID 0000.0001) %MON dynstat_theta_del2           =   9.5397981844443E-05
(PID.TID 0000.0001) %MON dynstat_salt_max             =   4.0641657116584E+01
(PID.TID 0000.0001) %MON dynstat_salt_min             =   2.0085630959932E+01
(PID.TID 0000.0001) %MON dynstat_salt_mean            =   3.4726983956981E+01
(PID.TID 0000.0001) %MON dynstat_salt_sd              =   3.8002908412933E-01
(PID.TID 0000.0001) %MON dynstat_salt_del2            =   2.0049594805719E-05
(PID.TID 0000.0001) %MON dynstat_sst_max              =   3.3562229287591E+01
(PID.TID 0000.0001) %MON dynstat_sst_min              =  -1.9602452236785E+00
(PID.TID 0000.0001) %MON dynstat_sst_mean             =   1.8153467642248E+01
(PID.TID 0000.0001) %MON dynstat_sst_sd               =   1.0168797676215E+01
(PID.TID 0000.0001) %MON dynstat_sst_del2             =   6.8579362843901E-04
(PID.TID 0000.0001) %MON dynstat_sss_max              =   3.9675936594333E+01
(PID.TID 0000.0001) %MON dynstat_sss_min              =   2.0085630959932E+01
(PID.TID 0000.0001) %MON dynstat_sss_mean             =   3.4693094055440E+01
(PID.TID 0000.0001) %MON dynstat_sss_sd               =   1.3280615616090E+00
(PID.TID 0000.0001) %MON dynstat_sss_del2             =   3.3367570565940E-04
(PID.TID 0000.0001) %MON forcing_qnet_max             =   6.7573479063134E+02
(PID.TID 0000.0001) %MON forcing_qnet_min             =  -5.6922140612106E+02
(PID.TID 0000.0001) %MON forcing_qnet_mean            =   4.4388804942704E+01
(PID.TID 0000.0001) %MON forcing_qnet_sd              =   1.5533376627677E+02
(PID.TID 0000.0001) %MON forcing_qnet_del2            =   9.9805471103234E-02
(PID.TID 0000.0001) %MON forcing_qsw_max              =   4.8571008715674E+01
(PID.TID 0000.0001) %MON forcing_qsw_min              =  -6.7510702867674E+02
(PID.TID 0000.0001) %MON forcing_qsw_mean             =  -1.1979392905303E+02
(PID.TID 0000.0001) %MON forcing_qsw_sd               =   1.4259829229302E+02
(PID.TID 0000.0001) %MON forcing_qsw_del2             =   4.3534781571848E-02
(PID.TID 0000.0001) %MON forcing_empmr_max            =   1.8403373776119E-03
(PID.TID 0000.0001) %MON forcing_empmr_min            =  -1.9621896999075E-03
(PID.TID 0000.0001) %MON forcing_empmr_mean           =  -5.7253437654676E-06
(PID.TID 0000.0001) %MON forcing_empmr_sd             =   1.0442610543526E-04
(PID.TID 0000.0001) %MON forcing_empmr_del2           =   3.0282108552899E-07
(PID.TID 0000.0001) %MON forcing_fu_max               =   1.0505705876686E+00
(PID.TID 0000.0001) %MON forcing_fu_min               =  -1.3288837392112E+00
(PID.TID 0000.0001) %MON forcing_fu_mean              =   1.7627949462744E-02
(PID.TID 0000.0001) %MON forcing_fu_sd                =   1.3915699397569E-01
(PID.TID 0000.0001) %MON forcing_fu_del2              =   7.5770178220479E-05
(PID.TID 0000.0001) %MON forcing_fv_max               =   6.5495472649733E-01
(PID.TID 0000.0001) %MON forcing_fv_min               =  -7.1993692715963E-01
(PID.TID 0000.0001) %MON forcing_fv_mean              =   1.0408288436289E-02
(PID.TID 0000.0001) %MON forcing_fv_sd                =   1.1614244151753E-01
(PID.TID 0000.0001) %MON forcing_fv_del2              =   6.6257848927289E-05
(PID.TID 0000.0001) %MON trAdv_CFL_u_max              =   6.2021697831497E-02
(PID.TID 0000.0001) %MON trAdv_CFL_v_max              =   8.0437546394196E-02
(PID.TID 0000.0001) %MON trAdv_CFL_w_max              =   1.0788056974732E-01
(PID.TID 0000.0001) %MON advcfl_uvel_max              =   5.5250273197901E-02
(PID.TID 0000.0001) %MON advcfl_vvel_max              =   8.5801825956467E-02
(PID.TID 0000.0001) %MON advcfl_wvel_max              =   1.0481159683483E-01
(PID.TID 0000.0001) %MON advcfl_W_hf_max              =   1.0801862524056E-01
(PID.TID 0000.0001) %MON pe_b_mean                    =   2.3641619595098E-03
(PID.TID 0000.0001) %MON ke_max                       =   9.3597214713881E-01
(PID.TID 0000.0001) %MON ke_mean                      =   4.3697427376699E-04
(PID.TID 0000.0001) %MON ke_vol                       =   1.3350237195137E+18
(PID.TID 0000.0001) %MON vort_r_min                   =  -2.9094363686292E-05
(PID.TID 0000.0001) %MON vort_r_max                   =   2.7969025577022E-05
(PID.TID 0000.0001) %MON vort_a_mean                  =  -1.9727725272413E-05
(PID.TID 0000.0001) %MON vort_a_sd                    =   7.4543019129847E-05
(PID.TID 0000.0001) %MON vort_p_mean                  =  -2.1759912926867E-05
(PID.TID 0000.0001) %MON vort_p_sd                    =   9.7242808287719E-05
(PID.TID 0000.0001) %MON surfExpan_theta_mean         =   1.2210478482845E-07
(PID.TID 0000.0001) %MON surfExpan_salt_mean          =   4.6829268154118E-08
(PID.TID 0000.0001) // =======================================================
(PID.TID 0000.0001) // End MONITOR dynamic field statistics
(PID.TID 0000.0001) // =======================================================
(PID.TID 0000.0001)  ploadbar=  1.01131946399317E+05
(PID.TID 0000.0001) %SBO sbo_mass                     =   1.3737590762221E+21
(PID.TID 0000.0001) %SBO sbo_mass_fw                  =   4.6260851588405E+16
(PID.TID 0000.0001) %SBO sbo_zoamc                    =   1.2470110743538E+25
(PID.TID 0000.0001) %SBO sbo_zoamp                    =   2.9276623145496E+30
(PID.TID 0000.0001) // =======================================================
(PID.TID 0000.0001) // Begin MONITOR SEAICE statistics
(PID.TID 0000.0001) // =======================================================
(PID.TID 0000.0001) %MON seaice_tsnumber              =                  5256
(PID.TID 0000.0001) %MON seaice_time_sec              =   1.8921600000000E+07
(PID.TID 0000.0001) %MON seaice_uice_max              =   4.0000000000000E-01
(PID.TID 0000.0001) %MON seaice_uice_min              =  -4.0000000000000E-01
(PID.TID 0000.0001) %MON seaice_uice_mean             =   1.1624896427566E-02
(PID.TID 0000.0001) %MON seaice_uice_sd               =   1.8546022157570E-01
(PID.TID 0000.0001) %MON seaice_uice_del2             =   1.4277292143317E-04
(PID.TID 0000.0001) %MON seaice_vice_max              =   4.0000000000000E-01
(PID.TID 0000.0001) %MON seaice_vice_min              =  -4.0000000000000E-01
(PID.TID 0000.0001) %MON seaice_vice_mean             =   4.2804070014879E-03
(PID.TID 0000.0001) %MON seaice_vice_sd               =   1.8831353281995E-01
(PID.TID 0000.0001) %MON seaice_vice_del2             =   1.4758261610673E-04
(PID.TID 0000.0001) %MON seaice_area_max              =   9.7000000000000E-01
(PID.TID 0000.0001) %MON seaice_area_min              =   0.0000000000000E+00
(PID.TID 0000.0001) %MON seaice_area_mean             =   6.1774181780824E-02
(PID.TID 0000.0001) %MON seaice_area_sd               =   2.2106379710960E-01
(PID.TID 0000.0001) %MON seaice_area_del2             =   1.9424468726037E-04
(PID.TID 0000.0001) %MON seaice_heff_max              =   4.7497950277307E+00
(PID.TID 0000.0001) %MON seaice_heff_min              =   0.0000000000000E+00
(PID.TID 0000.0001) %MON seaice_heff_mean             =   5.7484216889389E-02
(PID.TID 0000.0001) %MON seaice_heff_sd               =   2.6998934295418E-01
(PID.TID 0000.0001) %MON seaice_heff_del2             =   2.4528107790555E-04
(PID.TID 0000.0001) %MON seaice_hsnow_max             =   1.5169005653459E+00
(PID.TID 0000.0001) %MON seaice_hsnow_min             =  -6.4356168801865E-05
(PID.TID 0000.0001) %MON seaice_hsnow_mean            =   7.9015911217397E-03
(PID.TID 0000.0001) %MON seaice_hsnow_sd              =   4.4342978759674E-02
(PID.TID 0000.0001) %MON seaice_hsnow_del2            =   4.7431188241594E-05
(PID.TID 0000.0001) // =======================================================
(PID.TID 0000.0001) // End MONITOR SEAICE statistics
(PID.TID 0000.0001) // =======================================================
(PID.TID 0000.0001) // =======================================================
(PID.TID 0000.0001) // Begin MONITOR EXF statistics
(PID.TID 0000.0001) // =======================================================
(PID.TID 0000.0001) %MON exf_tsnumber                 =                  5256
(PID.TID 0000.0001) %MON exf_time_sec                 =   1.8921600000000E+07
(PID.TID 0000.0001) %MON exf_ustress_max              =   1.0319605171680E+00
(PID.TID 0000.0001) %MON exf_ustress_min              =  -2.7365112886986E+00
(PID.TID 0000.0001) %MON exf_ustress_mean             =   1.6951254638928E-02
(PID.TID 0000.0001) %MON exf_ustress_sd               =   1.4141458613852E-01
(PID.TID 0000.0001) %MON exf_ustress_del2             =   9.5632318855146E-05
(PID.TID 0000.0001) %MON exf_vstress_max              =   9.8055192322097E-01
(PID.TID 0000.0001) %MON exf_vstress_min              =  -7.5642028450966E-01
(PID.TID 0000.0001) %MON exf_vstress_mean             =   1.0716276380661E-02
(PID.TID 0000.0001) %MON exf_vstress_sd               =   1.1676662501779E-01
(PID.TID 0000.0001) %MON exf_vstress_del2             =   8.9841285683955E-05
(PID.TID 0000.0001) %MON exf_hflux_max                =   1.3888866062090E+03
(PID.TID 0000.0001) %MON exf_hflux_min                =  -5.4045871144573E+02
(PID.TID 0000.0001) %MON exf_hflux_mean               =   5.5162246349442E+01
(PID.TID 0000.0001) %MON exf_hflux_sd                 =   1.9173712850143E+02
(PID.TID 0000.0001) %MON exf_hflux_del2               =   5.2057577778974E-01
(PID.TID 0000.0001) %MON exf_sflux_max                =   1.8331898966198E-07
(PID.TID 0000.0001) %MON exf_sflux_min                =  -1.7385806447871E-06
(PID.TID 0000.0001) %MON exf_sflux_mean               =  -1.3744948649555E-09
(PID.TID 0000.0001) %MON exf_sflux_sd                 =   8.4184538364720E-08
(PID.TID 0000.0001) %MON exf_sflux_del2               =   2.3477503603599E-10
(PID.TID 0000.0001) %MON exf_wspeed_max               =   2.5240690231323E+01
(PID.TID 0000.0001) %MON exf_wspeed_min               =   4.1723468899727E-01
(PID.TID 0000.0001) %MON exf_wspeed_mean              =   7.3858445083069E+00
(PID.TID 0000.0001) %MON exf_wspeed_sd                =   3.4528558720404E+00
(PID.TID 0000.0001) %MON exf_wspeed_del2              =   1.7852083183700E-02
(PID.TID 0000.0001) %MON exf_atemp_max                =   3.0868459548950E+02
(PID.TID 0000.0001) %MON exf_atemp_min                =   2.0404054107666E+02
(PID.TID 0000.0001) %MON exf_atemp_mean               =   2.8943417945940E+02
(PID.TID 0000.0001) %MON exf_atemp_sd                 =   1.1800198632299E+01
(PID.TID 0000.0001) %MON exf_atemp_del2               =   3.6387405263929E-02
(PID.TID 0000.0001) %MON exf_aqh_max                  =   2.6844160631299E-02
(PID.TID 0000.0001) %MON exf_aqh_min                  =  -8.8349646830466E-05
(PID.TID 0000.0001) %MON exf_aqh_mean                 =   1.0956839730891E-02
(PID.TID 0000.0001) %MON exf_aqh_sd                   =   5.6255708972185E-03
(PID.TID 0000.0001) %MON exf_aqh_del2                 =   2.0634822780237E-05
(PID.TID 0000.0001) %MON exf_lwflux_max               =   2.6851439190653E+02
(PID.TID 0000.0001) %MON exf_lwflux_min               =  -5.2037547466609E+01
(PID.TID 0000.0001) %MON exf_lwflux_mean              =   4.4600359078953E+01
(PID.TID 0000.0001) %MON exf_lwflux_sd                =   2.6967803117478E+01
(PID.TID 0000.0001) %MON exf_lwflux_del2              =   1.2302527693417E-01
(PID.TID 0000.0001) %MON exf_evap_max                 =   1.9061944836561E-07
(PID.TID 0000.0001) %MON exf_evap_min                 =  -3.8133426311551E-08
(PID.TID 0000.0001) %MON exf_evap_mean                =   4.4079451634996E-08
(PID.TID 0000.0001) %MON exf_evap_sd                  =   2.9102194113859E-08
(PID.TID 0000.0001) %MON exf_evap_del2                =   9.7749338634643E-11
(PID.TID 0000.0001) %MON exf_precip_max               =   1.6365848694022E-06
(PID.TID 0000.0001) %MON exf_precip_min               =  -2.5055840957577E-08
(PID.TID 0000.0001) %MON exf_precip_mean              =   4.1368785095349E-08
(PID.TID 0000.0001) %MON exf_precip_sd                =   7.0131753952796E-08
(PID.TID 0000.0001) %MON exf_precip_del2              =   2.2110814135601E-10
(PID.TID 0000.0001) %MON exf_swflux_max               =   5.0799459075928E+01
(PID.TID 0000.0001) %MON exf_swflux_min               =  -5.8765573282653E+02
(PID.TID 0000.0001) %MON exf_swflux_mean              =  -1.2678102726158E+02
(PID.TID 0000.0001) %MON exf_swflux_sd                =   1.4517331930600E+02
(PID.TID 0000.0001) %MON exf_swflux_del2              =   3.4408261616568E-01
(PID.TID 0000.0001) %MON exf_swdown_max               =   6.3462234497070E+02
(PID.TID 0000.0001) %MON exf_swdown_min               =  -7.2570655822754E+01
(PID.TID 0000.0001) %MON exf_swdown_mean              =   1.3780403391997E+02
(PID.TID 0000.0001) %MON exf_swdown_sd                =   1.5697225883198E+02
(PID.TID 0000.0001) %MON exf_swdown_del2              =   3.7423040472699E-01
(PID.TID 0000.0001) %MON exf_lwdown_max               =   4.9949020385742E+02
(PID.TID 0000.0001) %MON exf_lwdown_min               =   3.0470651626587E+01
(PID.TID 0000.0001) %MON exf_lwdown_mean              =   3.6524669911288E+02
(PID.TID 0000.0001) %MON exf_lwdown_sd                =   6.1816184845256E+01
(PID.TID 0000.0001) %MON exf_lwdown_del2              =   7.0148828938144E-01
(PID.TID 0000.0001) %MON exf_apressure_max            =   1.0336608984375E+05
(PID.TID 0000.0001) %MON exf_apressure_min            =   9.4059789062500E+04
(PID.TID 0000.0001) %MON exf_apressure_mean           =   1.0113189510002E+05
(PID.TID 0000.0001) %MON exf_apressure_sd             =   1.2305024627474E+03
(PID.TID 0000.0001) %MON exf_apressure_del2           =   2.0668423099779E+02
(PID.TID 0000.0001) %MON exf_runoff_max               =   1.7809814879353E-06
(PID.TID 0000.0001) %MON exf_runoff_min               =   0.0000000000000E+00
(PID.TID 0000.0001) %MON exf_runoff_mean              =   4.0851614046022E-09
(PID.TID 0000.0001) %MON exf_runoff_sd                =   2.7591373452955E-08
(PID.TID 0000.0001) %MON exf_runoff_del2              =   7.2367526299534E-11
(PID.TID 0000.0001) // =======================================================
(PID.TID 0000.0001) // End MONITOR EXF statistics
(PID.TID 0000.0001) // =======================================================
 cg2d: Sum(rhs),rhsMax =  -9.91634003220864E+01  1.43901124492624E+00
(PID.TID 0000.0001)  ploadbar=  1.01131895100022E+05
 cg2d: Sum(rhs),rhsMax =  -9.92585017534702E+01  1.43804188226077E+00
(PID.TID 0000.0001)  ploadbar=  1.01131843800727E+05
 cg2d: Sum(rhs),rhsMax =  -9.92985723928380E+01  1.43787345465164E+00
(PID.TID 0000.0001)  ploadbar=  1.01131792501431E+05
 cg2d: Sum(rhs),rhsMax =  -9.92641562809669E+01  1.43878582980294E+00
(PID.TID 0000.0001)  ploadbar=  1.01131741202136E+05
 cg2d: Sum(rhs),rhsMax =  -9.91725619286208E+01  1.44054789315435E+00
(PID.TID 0000.0001)  ploadbar=  1.01130139418654E+05
 cg2d: Sum(rhs),rhsMax =  -9.90454436309706E+01  1.44284850659063E+00
(PID.TID 0000.0001)  ploadbar=  1.01128537635172E+05
 cg2d: Sum(rhs),rhsMax =  -9.88944521599531E+01  1.44552442259941E+00
(PID.TID 0000.0001)  ploadbar=  1.01126935851689E+05
 cg2d: Sum(rhs),rhsMax =  -9.87076316855258E+01  1.44875293449318E+00
(PID.TID 0000.0001)  ploadbar=  1.01125334068207E+05
 cg2d: Sum(rhs),rhsMax =  -9.85773604609143E+01  1.45117834797766E+00
(PID.TID 0000.0001)  ploadbar=  1.01123732284725E+05
 cg2d: Sum(rhs),rhsMax =  -9.84491001410484E+01  1.45359606250470E+00
(PID.TID 0000.0001)  ploadbar=  1.01122130501242E+05
 cg2d: Sum(rhs),rhsMax =  -9.84774360775628E+01  1.45369623888254E+00
(PID.TID 0000.0001)  ploadbar=  1.01121029613314E+05
 cg2d: Sum(rhs),rhsMax =  -9.85683977351226E+01  1.45286264701556E+00
(PID.TID 0000.0001)  ploadbar=  1.01119928725386E+05
 cg2d: Sum(rhs),rhsMax =  -9.88212989872872E+01  1.44963996059315E+00
(PID.TID 0000.0001)  ploadbar=  1.01118827837458E+05
 cg2d: Sum(rhs),rhsMax =  -9.93156393680145E+01  1.44290654264938E+00
(PID.TID 0000.0001)  ploadbar=  1.01117726949530E+05
 cg2d: Sum(rhs),rhsMax =  -1.00015204139612E+02  1.43328089175897E+00
(PID.TID 0000.0001)  ploadbar=  1.01116626061601E+05
 cg2d: Sum(rhs),rhsMax =  -1.00969795793033E+02  1.42018226492507E+00
(PID.TID 0000.0001)  ploadbar=  1.01115525173673E+05
 cg2d: Sum(rhs),rhsMax =  -1.02149401724453E+02  1.40426303403607E+00
(PID.TID 0000.0001)  ploadbar=  1.01115631705394E+05
 cg2d: Sum(rhs),rhsMax =  -1.02403832322735E+02  1.40128568137580E+00
(PID.TID 0000.0001)  ploadbar=  1.01115738237116E+05
 cg2d: Sum(rhs),rhsMax =  -1.02660241379610E+02  1.39832584592302E+00
(PID.TID 0000.0001)  ploadbar=  1.01115844768837E+05
 cg2d: Sum(rhs),rhsMax =  -1.02862345901587E+02  1.39614563075820E+00
(PID.TID 0000.0001)  ploadbar=  1.01115951300559E+05
 cg2d: Sum(rhs),rhsMax =  -1.03010284488113E+02  1.39473137150918E+00
(PID.TID 0000.0001)  ploadbar=  1.01116057832280E+05
 cg2d: Sum(rhs),rhsMax =  -1.03076133125309E+02  1.39445756837029E+00
(PID.TID 0000.0001)  ploadbar=  1.01116164364002E+05
 cg2d: Sum(rhs),rhsMax =  -1.01441305219446E+02  1.41753066682292E+00
(PID.TID 0000.0001)  ploadbar=  1.01115389566454E+05
 cg2d: Sum(rhs),rhsMax =  -9.92081270387681E+01  1.45002596292609E+00
(PID.TID 0000.0001)  ploadbar=  1.01114614768906E+05
 cg2d: Sum(rhs),rhsMax =  -9.70401245884483E+01  1.48299402341775E+00
(PID.TID 0000.0001)  ploadbar=  1.01113839971359E+05
 cg2d: Sum(rhs),rhsMax =  -9.49291936820599E+01  1.51653013671977E+00
(PID.TID 0000.0001)  ploadbar=  1.01113065173811E+05
 cg2d: Sum(rhs),rhsMax =  -9.28807679263755E+01  1.55052017369661E+00
(PID.TID 0000.0001)  ploadbar=  1.01112290376263E+05
 cg2d: Sum(rhs),rhsMax =  -9.09108086945414E+01  1.58464493518789E+00
(PID.TID 0000.0001)  ploadbar=  1.01111515578715E+05
 cg2d: Sum(rhs),rhsMax =  -8.91648461138614E+01  1.61619318670328E+00
(PID.TID 0000.0001)  ploadbar=  1.01108974090806E+05
 cg2d: Sum(rhs),rhsMax =  -8.76165737870719E+01  1.64526319944610E+00
(PID.TID 0000.0001)  ploadbar=  1.01106432602897E+05
 cg2d: Sum(rhs),rhsMax =  -8.63134254590454E+01  1.67060216191275E+00
(PID.TID 0000.0001)  ploadbar=  1.01103891114988E+05
 cg2d: Sum(rhs),rhsMax =  -8.52674636375715E+01  1.69158089418108E+00
(PID.TID 0000.0001)  ploadbar=  1.01101349627078E+05
 cg2d: Sum(rhs),rhsMax =  -8.44602917933336E+01  1.70821697622063E+00
(PID.TID 0000.0001)  ploadbar=  1.01098808139169E+05
 cg2d: Sum(rhs),rhsMax =  -8.38671217888667E+01  1.72075253451449E+00
(PID.TID 0000.0001)  ploadbar=  1.01096266651260E+05
 cg2d: Sum(rhs),rhsMax =  -8.34498956179862E+01  1.72979167450985E+00
(PID.TID 0000.0001)  ploadbar=  1.01095620154618E+05
 cg2d: Sum(rhs),rhsMax =  -8.30914344441734E+01  1.73767211755021E+00
(PID.TID 0000.0001)  ploadbar=  1.01094973657977E+05
 cg2d: Sum(rhs),rhsMax =  -8.28927376663531E+01  1.74223496352394E+00
(PID.TID 0000.0001)  ploadbar=  1.01094327161336E+05
 cg2d: Sum(rhs),rhsMax =  -8.31567061398899E+01  1.73707687570520E+00
(PID.TID 0000.0001)  ploadbar=  1.01093680664694E+05
 cg2d: Sum(rhs),rhsMax =  -8.38556937429564E+01  1.72294609766108E+00
(PID.TID 0000.0001)  ploadbar=  1.01093034168053E+05
 cg2d: Sum(rhs),rhsMax =  -8.46914554784290E+01  1.70626767683948E+00
(PID.TID 0000.0001)  ploadbar=  1.01092387671411E+05
 cg2d: Sum(rhs),rhsMax =  -8.54266798481101E+01  1.69193691310569E+00
(PID.TID 0000.0001)  ploadbar=  1.01092094903227E+05
 cg2d: Sum(rhs),rhsMax =  -8.60592988654738E+01  1.67988277151197E+00
(PID.TID 0000.0001)  ploadbar=  1.01091802135042E+05
 cg2d: Sum(rhs),rhsMax =  -8.66744360666249E+01  1.66837006335009E+00
(PID.TID 0000.0001)  ploadbar=  1.01091509366858E+05
 cg2d: Sum(rhs),rhsMax =  -8.72933187474857E+01  1.65697723456096E+00
(PID.TID 0000.0001)  ploadbar=  1.01091216598673E+05
 cg2d: Sum(rhs),rhsMax =  -8.79004876295652E+01  1.64599369574842E+00
(PID.TID 0000.0001)  ploadbar=  1.01090923830489E+05
 cg2d: Sum(rhs),rhsMax =  -8.85613705577867E+01  1.63419941755211E+00
(PID.TID 0000.0001)  ploadbar=  1.01090631062304E+05
 cg2d: Sum(rhs),rhsMax =  -8.91338639069345E+01  1.62419016433610E+00
(PID.TID 0000.0001)  ploadbar=  1.01090944913479E+05
 cg2d: Sum(rhs),rhsMax =  -8.96518665553818E+01  1.61529165959683E+00
(PID.TID 0000.0001)  ploadbar=  1.01091258764654E+05
 cg2d: Sum(rhs),rhsMax =  -8.78464055224948E+01  1.64898924485190E+00
(PID.TID 0000.0001)  ploadbar=  1.01091572615829E+05
 cg2d: Sum(rhs),rhsMax =  -8.32019864872842E+01  1.74156821176546E+00
(PID.TID 0000.0001)  ploadbar=  1.01091886467004E+05
 cg2d: Sum(rhs),rhsMax =  -7.90948359827694E+01  1.83256659472470E+00
(PID.TID 0000.0001)  ploadbar=  1.01092200318179E+05
 cg2d: Sum(rhs),rhsMax =  -7.54421627659572E+01  1.92189060978282E+00
(PID.TID 0000.0001)  ploadbar=  1.01092514169353E+05
 cg2d: Sum(rhs),rhsMax =  -7.22445395746558E+01  2.00755620725620E+00
(PID.TID 0000.0001)  ploadbar=  1.01093438465448E+05
 cg2d: Sum(rhs),rhsMax =  -6.93702157722668E+01  2.09134063258803E+00
(PID.TID 0000.0001)  ploadbar=  1.01094362761542E+05
 cg2d: Sum(rhs),rhsMax =  -6.67652044719824E+01  2.17354618256942E+00
(PID.TID 0000.0001)  ploadbar=  1.01095287057636E+05
 cg2d: Sum(rhs),rhsMax =  -6.44048605453181E+01  2.25381510190855E+00
(PID.TID 0000.0001)  ploadbar=  1.01096211353731E+05
 cg2d: Sum(rhs),rhsMax =  -6.22622766815455E+01  2.33199133141929E+00
(PID.TID 0000.0001)  ploadbar=  1.01097135649825E+05
 cg2d: Sum(rhs),rhsMax =  -6.03130927527878E+01  2.40798139540513E+00
(PID.TID 0000.0001)  ploadbar=  1.01098059945919E+05
 cg2d: Sum(rhs),rhsMax =  -5.84990743226542E+01  2.48325982367463E+00
(PID.TID 0000.0001)  ploadbar=  1.01098351515064E+05
 cg2d: Sum(rhs),rhsMax =  -5.69750177977276E+01  2.55027340184599E+00
(PID.TID 0000.0001)  ploadbar=  1.01098643084209E+05
 cg2d: Sum(rhs),rhsMax =  -5.61391736108181E+01  2.58880011276705E+00
(PID.TID 0000.0001)  ploadbar=  1.01098934653354E+05
 cg2d: Sum(rhs),rhsMax =  -5.53863914343077E+01  2.62451107139585E+00
(PID.TID 0000.0001)  ploadbar=  1.01099226222498E+05
 cg2d: Sum(rhs),rhsMax =  -5.49619488939244E+01  2.64526868138937E+00
(PID.TID 0000.0001)  ploadbar=  1.01099517791643E+05
 cg2d: Sum(rhs),rhsMax =  -5.44783469047925E+01  2.66920370379246E+00
(PID.TID 0000.0001)  ploadbar=  1.01099809360788E+05
 cg2d: Sum(rhs),rhsMax =  -5.47292810593147E+01  2.65744767339165E+00
(PID.TID 0000.0001)  ploadbar=  1.01101259925560E+05
 cg2d: Sum(rhs),rhsMax =  -5.58154791419644E+01  2.60623638174046E+00
(PID.TID 0000.0001)  ploadbar=  1.01102710490332E+05
 cg2d: Sum(rhs),rhsMax =  -5.71974477564706E+01  2.54378535318900E+00
(PID.TID 0000.0001)  ploadbar=  1.01104161055104E+05
 cg2d: Sum(rhs),rhsMax =  -5.85057347918218E+01  2.48743870199799E+00
(PID.TID 0000.0001)  ploadbar=  1.01105611619876E+05
 cg2d: Sum(rhs),rhsMax =  -5.96694290906641E+01  2.43948354787520E+00
(PID.TID 0000.0001)  ploadbar=  1.01107062184648E+05
 cg2d: Sum(rhs),rhsMax =  -6.06393362661031E+01  2.40104201868676E+00
(PID.TID 0000.0001)  ploadbar=  1.01108512749420E+05
 cg2d: Sum(rhs),rhsMax =  -6.15561400452517E+01  2.36584819943520E+00
(PID.TID 0000.0001)  ploadbar=  1.01109768735207E+05
 cg2d: Sum(rhs),rhsMax =  -6.23733437762345E+01  2.33541175684850E+00
(PID.TID 0000.0001)  ploadbar=  1.01111024720993E+05
 cg2d: Sum(rhs),rhsMax =  -6.31691868833298E+01  2.30654347029672E+00
(PID.TID 0000.0001)  ploadbar=  1.01112280706780E+05
 cg2d: Sum(rhs),rhsMax =  -6.39660524702590E+01  2.27835763390758E+00
(PID.TID 0000.0001)  ploadbar=  1.01113536692567E+05
 cg2d: Sum(rhs),rhsMax =  -6.47702937645428E+01  2.25060808819199E+00
(PID.TID 0000.0001)  ploadbar=  1.01114792678353E+05
 cg2d: Sum(rhs),rhsMax =  -6.55769052051208E+01  2.22345845306691E+00
(PID.TID 0000.0001)  ploadbar=  1.01116048664140E+05
 cg2d: Sum(rhs),rhsMax =  -6.63185016589379E+01  2.19909109688312E+00
(PID.TID 0000.0001)  ploadbar=  1.01116859153577E+05
 cg2d: Sum(rhs),rhsMax =  -6.70970634284449E+01  2.17403447301593E+00
(PID.TID 0000.0001)  ploadbar=  1.01117669643015E+05
 cg2d: Sum(rhs),rhsMax =  -6.79228978889187E+01  2.14802776844607E+00
(PID.TID 0000.0001)  ploadbar=  1.01118480132452E+05
 cg2d: Sum(rhs),rhsMax =  -6.87806367072515E+01  2.12163398840528E+00
(PID.TID 0000.0001)  ploadbar=  1.01119290621889E+05
 cg2d: Sum(rhs),rhsMax =  -6.96808066053054E+01  2.09458658854900E+00
(PID.TID 0000.0001)  ploadbar=  1.01120101111327E+05
 cg2d: Sum(rhs),rhsMax =  -7.06433652228816E+01  2.06637588711089E+00
(PID.TID 0000.0001)  ploadbar=  1.01120911600764E+05
 cg2d: Sum(rhs),rhsMax =  -7.16638350862243E+01  2.03725914787685E+00
(PID.TID 0000.0001)  ploadbar=  1.01120763087388E+05
 cg2d: Sum(rhs),rhsMax =  -7.27016950244939E+01  2.00846167427905E+00
(PID.TID 0000.0001)  ploadbar=  1.01120614574012E+05
 cg2d: Sum(rhs),rhsMax =  -7.37554432884233E+01  1.98003124059434E+00
(PID.TID 0000.0001)  ploadbar=  1.01120466060635E+05
 cg2d: Sum(rhs),rhsMax =  -7.48284834829992E+01  1.95188275372422E+00
(PID.TID 0000.0001)  ploadbar=  1.01120317547259E+05
 cg2d: Sum(rhs),rhsMax =  -7.59316325918180E+01  1.92375307748783E+00
(PID.TID 0000.0001)  ploadbar=  1.01120169033883E+05
 cg2d: Sum(rhs),rhsMax =  -7.70633798824670E+01  1.89571194610179E+00
(PID.TID 0000.0001)  ploadbar=  1.01120020520507E+05
 cg2d: Sum(rhs),rhsMax =  -7.81941243993217E+01  1.86853700030180E+00
(PID.TID 0000.0001)  ploadbar=  1.01119273452753E+05
 cg2d: Sum(rhs),rhsMax =  -7.92723513863324E+01  1.84338585449656E+00
(PID.TID 0000.0001)  ploadbar=  1.01118526384999E+05
 cg2d: Sum(rhs),rhsMax =  -8.03056063153722E+01  1.81995643613970E+00
(PID.TID 0000.0001)  ploadbar=  1.01117779317245E+05
 cg2d: Sum(rhs),rhsMax =  -8.12822757592815E+01  1.79840202268962E+00
(PID.TID 0000.0001)  ploadbar=  1.01117032249491E+05
 cg2d: Sum(rhs),rhsMax =  -8.22126069835658E+01  1.77839056155964E+00
(PID.TID 0000.0001)  ploadbar=  1.01116285181738E+05
 cg2d: Sum(rhs),rhsMax =  -8.31804433603063E+01  1.75806070271134E+00
(PID.TID 0000.0001)  ploadbar=  1.01115538113984E+05
 cg2d: Sum(rhs),rhsMax =  -8.42188650921844E+01  1.73673585207476E+00
(PID.TID 0000.0001)  ploadbar=  1.01114754430325E+05
 cg2d: Sum(rhs),rhsMax =  -8.53893831827245E+01  1.71326963712610E+00
(PID.TID 0000.0001)  ploadbar=  1.01113970746667E+05
 cg2d: Sum(rhs),rhsMax =  -8.66942060441347E+01  1.68781270790441E+00
(PID.TID 0000.0001)  ploadbar=  1.01113187063008E+05
 cg2d: Sum(rhs),rhsMax =  -8.81771454052715E+01  1.65974467693388E+00
(PID.TID 0000.0001)  ploadbar=  1.01112403379349E+05
 cg2d: Sum(rhs),rhsMax =  -8.98570869636062E+01  1.62901769958063E+00
(PID.TID 0000.0001)  ploadbar=  1.01111619695691E+05
 cg2d: Sum(rhs),rhsMax =  -9.17406227899188E+01  1.59586081844992E+00
(PID.TID 0000.0001)  ploadbar=  1.01110836012032E+05
 cg2d: Sum(rhs),rhsMax =  -9.06625476419112E+01  1.61512599039248E+00
(PID.TID 0000.0001)  ploadbar=  1.01110563258609E+05
 cg2d: Sum(rhs),rhsMax =  -8.93837923636536E+01  1.63851830036527E+00
(PID.TID 0000.0001)  ploadbar=  1.01110290505186E+05
 cg2d: Sum(rhs),rhsMax =  -8.76849508152962E+01  1.67054703916250E+00
(PID.TID 0000.0001)  ploadbar=  1.01110017751763E+05
 cg2d: Sum(rhs),rhsMax =  -8.60130806286364E+01  1.70329917492638E+00
(PID.TID 0000.0001)  ploadbar=  1.01109744998340E+05
 cg2d: Sum(rhs),rhsMax =  -8.46242508384424E+01  1.73153088234491E+00
(PID.TID 0000.0001)  ploadbar=  1.01109472244918E+05
 cg2d: Sum(rhs),rhsMax =  -8.34612919935713E+01  1.75593030302087E+00
(PID.TID 0000.0001)  ploadbar=  1.01109199491495E+05
 cg2d: Sum(rhs),rhsMax =  -8.27141313053100E+01  1.77203926865531E+00
(PID.TID 0000.0001)  ploadbar=  1.01108824908469E+05
 cg2d: Sum(rhs),rhsMax =  -8.22436397194675E+01  1.78239897565106E+00
(PID.TID 0000.0001)  ploadbar=  1.01108450325444E+05
 cg2d: Sum(rhs),rhsMax =  -8.20171870798127E+01  1.78751595829243E+00
(PID.TID 0000.0001)  ploadbar=  1.01108075742418E+05
 cg2d: Sum(rhs),rhsMax =  -8.20356935564336E+01  1.78728160095401E+00
(PID.TID 0000.0001)  ploadbar=  1.01107701159393E+05
 cg2d: Sum(rhs),rhsMax =  -8.24506827179763E+01  1.77842750511357E+00
(PID.TID 0000.0001)  ploadbar=  1.01107326576368E+05
 cg2d: Sum(rhs),rhsMax =  -8.30701850903071E+01  1.76527854308601E+00
(PID.TID 0000.0001)  ploadbar=  1.01106951993342E+05
 cg2d: Sum(rhs),rhsMax =  -8.36735570932343E+01  1.75270516009484E+00
(PID.TID 0000.0001)  ploadbar=  1.01106225207313E+05
 cg2d: Sum(rhs),rhsMax =  -8.42108421375573E+01  1.74171684740391E+00
(PID.TID 0000.0001)  ploadbar=  1.01105498421284E+05
 cg2d: Sum(rhs),rhsMax =  -8.46531195858312E+01  1.73284778584757E+00
(PID.TID 0000.0001)  ploadbar=  1.01104771635255E+05
 cg2d: Sum(rhs),rhsMax =  -8.50080424508859E+01  1.72588025374774E+00
(PID.TID 0000.0001)  ploadbar=  1.01104044849226E+05
 cg2d: Sum(rhs),rhsMax =  -8.53071988371539E+01  1.72013055877353E+00
(PID.TID 0000.0001)  ploadbar=  1.01103318063197E+05
 cg2d: Sum(rhs),rhsMax =  -8.55814536217059E+01  1.71495500999446E+00
(PID.TID 0000.0001)  ploadbar=  1.01102591277168E+05
 cg2d: Sum(rhs),rhsMax =  -8.57304900327771E+01  1.71232919726190E+00
(PID.TID 0000.0001)  ploadbar=  1.01101547041665E+05
 cg2d: Sum(rhs),rhsMax =  -8.58692463481956E+01  1.70993603647848E+00
(PID.TID 0000.0001)  ploadbar=  1.01100502806164E+05
 cg2d: Sum(rhs),rhsMax =  -8.60103052507733E+01  1.70752298884116E+00
(PID.TID 0000.0001)  ploadbar=  1.01099458570662E+05
 cg2d: Sum(rhs),rhsMax =  -8.61523474452239E+01  1.70511552052529E+00
(PID.TID 0000.0001)  ploadbar=  1.01098414335160E+05
 cg2d: Sum(rhs),rhsMax =  -8.62976067731944E+01  1.70266875591849E+00
(PID.TID 0000.0001)  ploadbar=  1.01097370099658E+05
 cg2d: Sum(rhs),rhsMax =  -8.64426930405066E+01  1.70024767333806E+00
(PID.TID 0000.0001)  ploadbar=  1.01096325864156E+05
 cg2d: Sum(rhs),rhsMax =  -8.65203873796144E+01  1.69915622459638E+00
(PID.TID 0000.0001)  ploadbar=  1.01095046381119E+05
 cg2d: Sum(rhs),rhsMax =  -8.65904494461872E+01  1.69821370983406E+00
(PID.TID 0000.0001)  ploadbar=  1.01093766898082E+05
 cg2d: Sum(rhs),rhsMax =  -8.66588730634373E+01  1.69730117754793E+00
(PID.TID 0000.0001)  ploadbar=  1.01092487415045E+05
 cg2d: Sum(rhs),rhsMax =  -8.67318295619183E+01  1.69629678930783E+00
(PID.TID 0000.0001)  ploadbar=  1.01091207932008E+05
 cg2d: Sum(rhs),rhsMax =  -8.68077408347924E+01  1.69523011380280E+00
(PID.TID 0000.0001)  ploadbar=  1.01089928448971E+05
 cg2d: Sum(rhs),rhsMax =  -8.68883975683183E+01  1.69406448858846E+00
(PID.TID 0000.0001)  ploadbar=  1.01088648965934E+05
 cg2d: Sum(rhs),rhsMax =  -8.69974016679768E+01  1.69232820582187E+00
(PID.TID 0000.0001)  ploadbar=  1.01088571149636E+05
 cg2d: Sum(rhs),rhsMax =  -8.71141191902225E+01  1.69042488102042E+00
(PID.TID 0000.0001)  ploadbar=  1.01088493333338E+05
 cg2d: Sum(rhs),rhsMax =  -8.72336454679533E+01  1.68845008816156E+00
(PID.TID 0000.0001)  ploadbar=  1.01088415517039E+05
 cg2d: Sum(rhs),rhsMax =  -8.73667946854570E+01  1.68619502053780E+00
(PID.TID 0000.0001)  ploadbar=  1.01088337700741E+05
 cg2d: Sum(rhs),rhsMax =  -8.75103113143684E+01  1.68372370001936E+00
(PID.TID 0000.0001)  ploadbar=  1.01088259884443E+05
 cg2d: Sum(rhs),rhsMax =  -8.76597223837117E+01  1.68112247985085E+00
(PID.TID 0000.0001)  ploadbar=  1.01088182068144E+05
 cg2d: Sum(rhs),rhsMax =  -8.78131272409130E+01  1.67848473683486E+00
(PID.TID 0000.0001)  ploadbar=  1.01088241489251E+05
 cg2d: Sum(rhs),rhsMax =  -8.79677515697480E+01  1.67586219924515E+00
(PID.TID 0000.0001)  ploadbar=  1.01088300910357E+05
 cg2d: Sum(rhs),rhsMax =  -8.81134226614911E+01  1.67344652922059E+00
(PID.TID 0000.0001)  ploadbar=  1.01088360331464E+05
 cg2d: Sum(rhs),rhsMax =  -8.82555838331648E+01  1.67113294671548E+00
(PID.TID 0000.0001)  ploadbar=  1.01088419752571E+05
 cg2d: Sum(rhs),rhsMax =  -8.83971110520467E+01  1.66886570904317E+00
(PID.TID 0000.0001)  ploadbar=  1.01088479173677E+05
 cg2d: Sum(rhs),rhsMax =  -8.85351708447541E+01  1.66669558951851E+00
(PID.TID 0000.0001)  ploadbar=  1.01088538594784E+05
 cg2d: Sum(rhs),rhsMax =  -8.87496112070822E+01  1.66309861510959E+00
(PID.TID 0000.0001)  ploadbar=  1.01089080724852E+05
 cg2d: Sum(rhs),rhsMax =  -8.89718511151782E+01  1.65937125935189E+00
(PID.TID 0000.0001)  ploadbar=  1.01089622854921E+05
 cg2d: Sum(rhs),rhsMax =  -8.90119619038778E+01  1.65904792779379E+00
(PID.TID 0000.0001)  ploadbar=  1.01090164984989E+05
 cg2d: Sum(rhs),rhsMax =  -8.82992954831386E+01  1.67286310381000E+00
(PID.TID 0000.0001)  ploadbar=  1.01090707115058E+05
 cg2d: Sum(rhs),rhsMax =  -8.74717353234952E+01  1.68911468935455E+00
(PID.TID 0000.0001)  ploadbar=  1.01091249245126E+05
 cg2d: Sum(rhs),rhsMax =  -8.65792724481372E+01  1.70695020746073E+00
(PID.TID 0000.0001)  ploadbar=  1.01091791375195E+05
 cg2d: Sum(rhs),rhsMax =  -8.56530849959980E+01  1.72583735170924E+00
(PID.TID 0000.0001)  ploadbar=  1.01091781302135E+05
 cg2d: Sum(rhs),rhsMax =  -8.47557413674179E+01  1.74454267164375E+00
(PID.TID 0000.0001)  ploadbar=  1.01091771229076E+05
 cg2d: Sum(rhs),rhsMax =  -8.39399472497279E+01  1.76193286551077E+00
(PID.TID 0000.0001)  ploadbar=  1.01091761156017E+05
 cg2d: Sum(rhs),rhsMax =  -8.32139350216066E+01  1.77774176456371E+00
(PID.TID 0000.0001)  ploadbar=  1.01091751082958E+05
 cg2d: Sum(rhs),rhsMax =  -8.25859592546385E+01  1.79169638773598E+00
(PID.TID 0000.0001)  ploadbar=  1.01091741009899E+05
 cg2d: Sum(rhs),rhsMax =  -8.20626864849313E+01  1.80355780535096E+00
(PID.TID 0000.0001)  ploadbar=  1.01091730936839E+05
 cg2d: Sum(rhs),rhsMax =  -8.16319100796826E+01  1.81348591473543E+00
(PID.TID 0000.0001)  ploadbar=  1.01092689713016E+05
 cg2d: Sum(rhs),rhsMax =  -8.12723423672331E+01  1.82189121976406E+00
(PID.TID 0000.0001)  ploadbar=  1.01093648489192E+05
 cg2d: Sum(rhs),rhsMax =  -8.10007297606307E+01  1.82835243542573E+00
(PID.TID 0000.0001)  ploadbar=  1.01094607265368E+05
 cg2d: Sum(rhs),rhsMax =  -8.08052823918462E+01  1.83309622807749E+00
(PID.TID 0000.0001)  ploadbar=  1.01095566041544E+05
 cg2d: Sum(rhs),rhsMax =  -8.06937855352488E+01  1.83591898844510E+00
(PID.TID 0000.0001)  ploadbar=  1.01096524817720E+05
 cg2d: Sum(rhs),rhsMax =  -8.06778188336648E+01  1.83653838277462E+00
(PID.TID 0000.0001)  ploadbar=  1.01097483593896E+05
 cg2d: Sum(rhs),rhsMax =  -8.07818934732665E+01  1.83446888571787E+00
(PID.TID 0000.0001)  ploadbar=  1.01098727031442E+05
 cg2d: Sum(rhs),rhsMax =  -8.09296898676281E+01  1.83145445607452E+00
(PID.TID 0000.0001)  ploadbar=  1.01099970468988E+05
 cg2d: Sum(rhs),rhsMax =  -8.10860750181145E+01  1.82829569426255E+00
(PID.TID 0000.0001)  ploadbar=  1.01101213906534E+05
 cg2d: Sum(rhs),rhsMax =  -8.12329825243413E+01  1.82539874829264E+00
(PID.TID 0000.0001)  ploadbar=  1.01102457344080E+05
 cg2d: Sum(rhs),rhsMax =  -8.13519041999536E+01  1.82317560393659E+00
(PID.TID 0000.0001)  ploadbar=  1.01103700781625E+05
 cg2d: Sum(rhs),rhsMax =  -8.14339889579337E+01  1.82181619932441E+00
(PID.TID 0000.0001)  ploadbar=  1.01104944219171E+05
 cg2d: Sum(rhs),rhsMax =  -8.15225706877604E+01  1.82028350609751E+00
(PID.TID 0000.0001)  ploadbar=  1.01106371992370E+05
 cg2d: Sum(rhs),rhsMax =  -8.15829079367744E+01  1.81935198839202E+00
(PID.TID 0000.0001)  ploadbar=  1.01107799765568E+05
 cg2d: Sum(rhs),rhsMax =  -8.15801092555105E+01  1.81979762031708E+00
(PID.TID 0000.0001)  ploadbar=  1.01109227538767E+05
 cg2d: Sum(rhs),rhsMax =  -8.15521110813826E+01  1.82077445048768E+00
(PID.TID 0000.0001)  ploadbar=  1.01110655311966E+05
 cg2d: Sum(rhs),rhsMax =  -8.15584830184626E+01  1.82095292676634E+00
(PID.TID 0000.0001)  ploadbar=  1.01112083085164E+05
 cg2d: Sum(rhs),rhsMax =  -8.16380843785208E+01  1.81946610376700E+00
(PID.TID 0000.0001)  ploadbar=  1.01113510858363E+05
 cg2d: Sum(rhs),rhsMax =  -8.17576003776238E+01  1.81708010947004E+00
(PID.TID 0000.0001)  ploadbar=  1.01113500372485E+05
 cg2d: Sum(rhs),rhsMax =  -8.19387179963199E+01  1.81332145970788E+00
(PID.TID 0000.0001)  ploadbar=  1.01113489886606E+05
 cg2d: Sum(rhs),rhsMax =  -8.21347990076245E+01  1.80923350638246E+00
(PID.TID 0000.0001)  ploadbar=  1.01113479400728E+05
 cg2d: Sum(rhs),rhsMax =  -8.23497892699276E+01  1.80473381727862E+00
(PID.TID 0000.0001)  ploadbar=  1.01113468914850E+05
 cg2d: Sum(rhs),rhsMax =  -8.25936741832197E+01  1.79961147539456E+00
(PID.TID 0000.0001)  ploadbar=  1.01113458428971E+05
 cg2d: Sum(rhs),rhsMax =  -8.28771804011263E+01  1.79364596565913E+00
(PID.TID 0000.0001)  ploadbar=  1.01113447943093E+05
 cg2d: Sum(rhs),rhsMax =  -8.31471134717090E+01  1.78797061951933E+00
(PID.TID 0000.0001)  ploadbar=  1.01114071051591E+05
 cg2d: Sum(rhs),rhsMax =  -8.34306862740839E+01  1.78199573668710E+00
(PID.TID 0000.0001)  ploadbar=  1.01114694160089E+05
 cg2d: Sum(rhs),rhsMax =  -8.36973480961688E+01  1.77637473873655E+00
(PID.TID 0000.0001)  ploadbar=  1.01115317268587E+05
 cg2d: Sum(rhs),rhsMax =  -8.39280609480553E+01  1.77150205055190E+00
(PID.TID 0000.0001)  ploadbar=  1.01115940377085E+05
 cg2d: Sum(rhs),rhsMax =  -8.41256890192554E+01  1.76730466770631E+00
(PID.TID 0000.0001)  ploadbar=  1.01116563485582E+05
 cg2d: Sum(rhs),rhsMax =  -8.42951554796569E+01  1.76366852115402E+00
(PID.TID 0000.0001)  ploadbar=  1.01117186594080E+05
 cg2d: Sum(rhs),rhsMax =  -8.43788268236150E+01  1.76188075693213E+00
(PID.TID 0000.0001)  ploadbar=  1.01117215551341E+05
 cg2d: Sum(rhs),rhsMax =  -8.44409761801277E+01  1.76059014284350E+00
(PID.TID 0000.0001)  ploadbar=  1.01117244508601E+05
 cg2d: Sum(rhs),rhsMax =  -8.44939606718269E+01  1.75953524599270E+00
(PID.TID 0000.0001)  ploadbar=  1.01117273465861E+05
 cg2d: Sum(rhs),rhsMax =  -8.45298169509056E+01  1.75888051231990E+00
(PID.TID 0000.0001)  ploadbar=  1.01117302423121E+05
 cg2d: Sum(rhs),rhsMax =  -8.45653795292689E+01  1.75827428312295E+00
(PID.TID 0000.0001)  ploadbar=  1.01117331380381E+05
 cg2d: Sum(rhs),rhsMax =  -8.46084248909253E+01  1.75755322384843E+00
(PID.TID 0000.0001)  ploadbar=  1.01117360337641E+05
 cg2d: Sum(rhs),rhsMax =  -8.46591820388511E+01  1.75668086784505E+00
(PID.TID 0000.0001)  ploadbar=  1.01117235124061E+05
 cg2d: Sum(rhs),rhsMax =  -8.47164282581288E+01  1.75568188484078E+00
(PID.TID 0000.0001)  ploadbar=  1.01117109910481E+05
 cg2d: Sum(rhs),rhsMax =  -8.48080098324923E+01  1.75398178510374E+00
(PID.TID 0000.0001)  ploadbar=  1.01116984696900E+05
 cg2d: Sum(rhs),rhsMax =  -8.49341540306106E+01  1.75157955253471E+00
(PID.TID 0000.0001)  ploadbar=  1.01116859483320E+05
 cg2d: Sum(rhs),rhsMax =  -8.50899119964951E+01  1.74858257124605E+00
(PID.TID 0000.0001)  ploadbar=  1.01116734269740E+05
 cg2d: Sum(rhs),rhsMax =  -8.52671837534615E+01  1.74516361539460E+00
(PID.TID 0000.0001)  ploadbar=  1.01116609056159E+05
 cg2d: Sum(rhs),rhsMax =  -8.54697807032360E+01  1.74122214425079E+00
(PID.TID 0000.0001)  ploadbar=  1.01117238484868E+05
 cg2d: Sum(rhs),rhsMax =  -8.56769307124804E+01  1.73718502949518E+00
(PID.TID 0000.0001)  ploadbar=  1.01117867913577E+05
 cg2d: Sum(rhs),rhsMax =  -8.58838988335417E+01  1.73314794352258E+00
(PID.TID 0000.0001)  ploadbar=  1.01118497342285E+05
 cg2d: Sum(rhs),rhsMax =  -8.60928860774737E+01  1.72906599713240E+00
(PID.TID 0000.0001)  ploadbar=  1.01119126770994E+05
 cg2d: Sum(rhs),rhsMax =  -8.63021862586568E+01  1.72497383935529E+00
(PID.TID 0000.0001)  ploadbar=  1.01119756199703E+05
 cg2d: Sum(rhs),rhsMax =  -8.65141796661508E+01  1.72082295773948E+00
(PID.TID 0000.0001)  ploadbar=  1.01120385628411E+05
 cg2d: Sum(rhs),rhsMax =  -8.67804037406949E+01  1.71558146530082E+00
(PID.TID 0000.0001)  ploadbar=  1.01120580682073E+05
 cg2d: Sum(rhs),rhsMax =  -8.70789160179989E+01  1.70969868585277E+00
(PID.TID 0000.0001)  ploadbar=  1.01120775735734E+05
 cg2d: Sum(rhs),rhsMax =  -8.73974013240534E+01  1.70342713994788E+00
(PID.TID 0000.0001)  ploadbar=  1.01120970789396E+05
 cg2d: Sum(rhs),rhsMax =  -8.77550088613095E+01  1.69640277631424E+00
(PID.TID 0000.0001)  ploadbar=  1.01121165843058E+05
 cg2d: Sum(rhs),rhsMax =  -8.80392131021098E+01  1.69080383471413E+00
(PID.TID 0000.0001)  ploadbar=  1.01121360896719E+05
 cg2d: Sum(rhs),rhsMax =  -8.83329545807352E+01  1.68501812867008E+00
(PID.TID 0000.0001)  ploadbar=  1.01121555950381E+05
 cg2d: Sum(rhs),rhsMax =  -8.86478950766127E+01  1.67892489472743E+00
(PID.TID 0000.0001)  ploadbar=  1.01122426002277E+05
 cg2d: Sum(rhs),rhsMax =  -8.89985823085344E+01  1.67225672046735E+00
(PID.TID 0000.0001)  ploadbar=  1.01123296054173E+05
 cg2d: Sum(rhs),rhsMax =  -8.96096886058179E+01  1.66085138611034E+00
(PID.TID 0000.0001)  ploadbar=  1.01124166106069E+05
 cg2d: Sum(rhs),rhsMax =  -9.04759956807034E+01  1.64499550762214E+00
(PID.TID 0000.0001)  ploadbar=  1.01125036157965E+05
 cg2d: Sum(rhs),rhsMax =  -9.14213577777340E+01  1.62807778922806E+00
(PID.TID 0000.0001)  ploadbar=  1.01125906209861E+05
 cg2d: Sum(rhs),rhsMax =  -9.13712595737740E+01  1.62910705524331E+00
(PID.TID 0000.0001)  ploadbar=  1.01126776261757E+05
 cg2d: Sum(rhs),rhsMax =  -9.07873699229566E+01  1.63972243132822E+00
(PID.TID 0000.0001)  ploadbar=  1.01127016550739E+05
 cg2d: Sum(rhs),rhsMax =  -8.98657548049708E+01  1.65667644543445E+00
(PID.TID 0000.0001)  ploadbar=  1.01127256839722E+05
 cg2d: Sum(rhs),rhsMax =  -8.88573455457853E+01  1.67561218912285E+00
(PID.TID 0000.0001)  ploadbar=  1.01127497128705E+05
 cg2d: Sum(rhs),rhsMax =  -8.82659073395291E+01  1.68697043584054E+00
(PID.TID 0000.0001)  ploadbar=  1.01127737417687E+05
 cg2d: Sum(rhs),rhsMax =  -8.77973824536120E+01  1.69609615079625E+00
(PID.TID 0000.0001)  ploadbar=  1.01127977706670E+05
 cg2d: Sum(rhs),rhsMax =  -8.72112699023683E+01  1.70760855280610E+00
(PID.TID 0000.0001)  ploadbar=  1.01128217995653E+05
 cg2d: Sum(rhs),rhsMax =  -8.65617023311725E+01  1.72053247823055E+00
(PID.TID 0000.0001)  ploadbar=  1.01129111338904E+05
 cg2d: Sum(rhs),rhsMax =  -8.58076475626289E+01  1.73575356266135E+00
(PID.TID 0000.0001)  ploadbar=  1.01130004682154E+05
 cg2d: Sum(rhs),rhsMax =  -8.50179934634303E+01  1.75196639621257E+00
(PID.TID 0000.0001)  ploadbar=  1.01130898025405E+05
 cg2d: Sum(rhs),rhsMax =  -8.41677277234994E+01  1.76974273985417E+00
(PID.TID 0000.0001)  ploadbar=  1.01131791368656E+05
 cg2d: Sum(rhs),rhsMax =  -8.32469673012740E+01  1.78937952839372E+00
(PID.TID 0000.0001)  ploadbar=  1.01132684711906E+05
 cg2d: Sum(rhs),rhsMax =  -8.22580449768023E+01  1.81093455197846E+00
(PID.TID 0000.0001)  ploadbar=  1.01133578055157E+05
 cg2d: Sum(rhs),rhsMax =  -8.12347868891809E+01  1.83377684039411E+00
(PID.TID 0000.0001)  ploadbar=  1.01133917683186E+05
 cg2d: Sum(rhs),rhsMax =  -8.01837972136513E+01  1.85783094997352E+00
(PID.TID 0000.0001)  ploadbar=  1.01134257311215E+05
 cg2d: Sum(rhs),rhsMax =  -7.91410150414525E+01  1.88231483413300E+00
(PID.TID 0000.0001)  ploadbar=  1.01134596939244E+05
 cg2d: Sum(rhs),rhsMax =  -7.81178437208842E+01  1.90695795401878E+00
(PID.TID 0000.0001)  ploadbar=  1.01134936567274E+05
 cg2d: Sum(rhs),rhsMax =  -7.71239873071424E+01  1.93150287004923E+00
(PID.TID 0000.0001)  ploadbar=  1.01135276195303E+05
 cg2d: Sum(rhs),rhsMax =  -7.61602478245221E+01  1.95589471021861E+00
(PID.TID 0000.0001)  ploadbar=  1.01135615823332E+05
 cg2d: Sum(rhs),rhsMax =  -7.52789337269514E+01  1.97880072421418E+00
(PID.TID 0000.0001)  ploadbar=  1.01135670021773E+05
 cg2d: Sum(rhs),rhsMax =  -7.44403665534653E+01  2.00115779618163E+00
(PID.TID 0000.0001)  ploadbar=  1.01135724220214E+05
 cg2d: Sum(rhs),rhsMax =  -7.36441160290551E+01  2.02291547837671E+00
(PID.TID 0000.0001)  ploadbar=  1.01135778418655E+05
 cg2d: Sum(rhs),rhsMax =  -7.28878219755908E+01  2.04408159992369E+00
(PID.TID 0000.0001)  ploadbar=  1.01135832617097E+05
 cg2d: Sum(rhs),rhsMax =  -7.21690399006705E+01  2.06466729209402E+00
(PID.TID 0000.0001)  ploadbar=  1.01135886815538E+05
 cg2d: Sum(rhs),rhsMax =  -7.14835687874688E+01  2.08473770196592E+00
(PID.TID 0000.0001)  ploadbar=  1.01135941013979E+05
 cg2d: Sum(rhs),rhsMax =  -7.08384423369051E+01  2.10400794527223E+00
(PID.TID 0000.0001)  ploadbar=  1.01136390705072E+05
 cg2d: Sum(rhs),rhsMax =  -7.02403175506513E+01  2.12222554795535E+00
(PID.TID 0000.0001)  ploadbar=  1.01136840396164E+05
 cg2d: Sum(rhs),rhsMax =  -6.96851709421477E+01  2.13944779975164E+00
(PID.TID 0000.0001)  ploadbar=  1.01137290087257E+05
 cg2d: Sum(rhs),rhsMax =  -6.91754554908267E+01  2.15554011461068E+00
(PID.TID 0000.0001)  ploadbar=  1.01137739778350E+05
 cg2d: Sum(rhs),rhsMax =  -6.87144565116183E+01  2.17033768028209E+00
(PID.TID 0000.0001)  ploadbar=  1.01138189469442E+05
 cg2d: Sum(rhs),rhsMax =  -6.82978252055636E+01  2.18391864480246E+00
(PID.TID 0000.0001)  ploadbar=  1.01138639160535E+05
 cg2d: Sum(rhs),rhsMax =  -6.79310373645701E+01  2.19607397659136E+00
(PID.TID 0000.0001)  ploadbar=  1.01139397625948E+05
 cg2d: Sum(rhs),rhsMax =  -6.76062451270528E+01  2.20700513490662E+00
(PID.TID 0000.0001)  ploadbar=  1.01140156091360E+05
 cg2d: Sum(rhs),rhsMax =  -6.73227616290361E+01  2.21669368670748E+00
(PID.TID 0000.0001)  ploadbar=  1.01140914556773E+05
 cg2d: Sum(rhs),rhsMax =  -6.70810393783174E+01  2.22508703001941E+00
(PID.TID 0000.0001)  ploadbar=  1.01141673022186E+05
 cg2d: Sum(rhs),rhsMax =  -6.68927200050268E+01  2.23176361055688E+00
(PID.TID 0000.0001)  ploadbar=  1.01142431487599E+05
 cg2d: Sum(rhs),rhsMax =  -6.67674550754620E+01  2.23636849431093E+00
(PID.TID 0000.0001)  ploadbar=  1.01143189953012E+05
 cg2d: Sum(rhs),rhsMax =  -6.67161463729293E+01  2.23847295108880E+00
(PID.TID 0000.0001)  ploadbar=  1.01143993198870E+05
 cg2d: Sum(rhs),rhsMax =  -6.67538621026830E+01  2.23755763260868E+00
(PID.TID 0000.0001)  ploadbar=  1.01144796444728E+05
 cg2d: Sum(rhs),rhsMax =  -6.68389118123945E+01  2.23502358179282E+00
(PID.TID 0000.0001)  ploadbar=  1.01145599690587E+05
 cg2d: Sum(rhs),rhsMax =  -6.71361472896515E+01  2.22540303425094E+00
(PID.TID 0000.0001)  ploadbar=  1.01146402936445E+05
 cg2d: Sum(rhs),rhsMax =  -6.74470889925623E+01  2.21537864093564E+00
(PID.TID 0000.0001)  ploadbar=  1.01147206182303E+05
 cg2d: Sum(rhs),rhsMax =  -6.77814201323168E+01  2.20464498086501E+00
(PID.TID 0000.0001)  ploadbar=  1.01148009428162E+05
 cg2d: Sum(rhs),rhsMax =  -6.81739178061225E+01  2.19221350192364E+00
(PID.TID 0000.0001)  ploadbar=  1.01148513389695E+05
 cg2d: Sum(rhs),rhsMax =  -6.85866981756472E+01  2.17934664815485E+00
(PID.TID 0000.0001)  ploadbar=  1.01149017351229E+05
 cg2d: Sum(rhs),rhsMax =  -6.89862018347638E+01  2.16711614674745E+00
(PID.TID 0000.0001)  ploadbar=  1.01149521312763E+05
 cg2d: Sum(rhs),rhsMax =  -6.93637531102635E+01  2.15577094171261E+00
(PID.TID 0000.0001)  ploadbar=  1.01150025274296E+05
 cg2d: Sum(rhs),rhsMax =  -6.97027862905599E+01  2.14579231984190E+00
(PID.TID 0000.0001)  ploadbar=  1.01150529235830E+05
 cg2d: Sum(rhs),rhsMax =  -6.99851301495541E+01  2.13769119564026E+00
(PID.TID 0000.0001)  ploadbar=  1.01151033197364E+05
 cg2d: Sum(rhs),rhsMax =  -7.02272095515144E+01  2.13084681522842E+00
(PID.TID 0000.0001)  ploadbar=  1.01151484518588E+05
 cg2d: Sum(rhs),rhsMax =  -7.04337039313690E+01  2.12509422934239E+00
(PID.TID 0000.0001)  ploadbar=  1.01151935839811E+05
 cg2d: Sum(rhs),rhsMax =  -7.06040854700219E+01  2.12043036611470E+00
(PID.TID 0000.0001)  ploadbar=  1.01152387161035E+05
 cg2d: Sum(rhs),rhsMax =  -7.07474579171023E+01  2.11656476224015E+00
(PID.TID 0000.0001)  ploadbar=  1.01152838482259E+05
 cg2d: Sum(rhs),rhsMax =  -7.08739268262626E+01  2.11318609166156E+00
(PID.TID 0000.0001)  ploadbar=  1.01153289803483E+05
 cg2d: Sum(rhs),rhsMax =  -7.10221946473576E+01  2.10913575759244E+00
(PID.TID 0000.0001)  ploadbar=  1.01153741124707E+05
 cg2d: Sum(rhs),rhsMax =  -7.11762011270872E+01  2.10493554462440E+00
(PID.TID 0000.0001)  ploadbar=  1.01153199309754E+05
 cg2d: Sum(rhs),rhsMax =  -7.13656616463044E+01  2.09970336804626E+00
(PID.TID 0000.0001)  ploadbar=  1.01152657494800E+05
 cg2d: Sum(rhs),rhsMax =  -7.15643545439270E+01  2.09421779436706E+00
(PID.TID 0000.0001)  ploadbar=  1.01152115679847E+05
 cg2d: Sum(rhs),rhsMax =  -7.17725545109775E+01  2.08847404399566E+00
(PID.TID 0000.0001)  ploadbar=  1.01151573864894E+05
 cg2d: Sum(rhs),rhsMax =  -7.19950670124693E+01  2.08233874287911E+00
(PID.TID 0000.0001)  ploadbar=  1.01151032049941E+05
 cg2d: Sum(rhs),rhsMax =  -7.22284791340349E+01  2.07591621011877E+00
(PID.TID 0000.0001)  ploadbar=  1.01150490234988E+05
 cg2d: Sum(rhs),rhsMax =  -7.24093513269917E+01  2.07101036640642E+00
(PID.TID 0000.0001)  ploadbar=  1.01149999913864E+05
 cg2d: Sum(rhs),rhsMax =  -7.25882058705955E+01  2.06616210896298E+00
(PID.TID 0000.0001)  ploadbar=  1.01149509592741E+05
 cg2d: Sum(rhs),rhsMax =  -7.27509870789710E+01  2.06176713568187E+00
(PID.TID 0000.0001)  ploadbar=  1.01149019271617E+05
 cg2d: Sum(rhs),rhsMax =  -7.28971927684536E+01  2.05783461371575E+00
(PID.TID 0000.0001)  ploadbar=  1.01148528950494E+05
 cg2d: Sum(rhs),rhsMax =  -7.30303596036905E+01  2.05425939211611E+00
(PID.TID 0000.0001)  ploadbar=  1.01148038629371E+05
 cg2d: Sum(rhs),rhsMax =  -7.31500243778598E+01  2.05104876164502E+00
(PID.TID 0000.0001)  ploadbar=  1.01147548308247E+05
 cg2d: Sum(rhs),rhsMax =  -7.32625971816695E+01  2.04810061881329E+00
(PID.TID 0000.0001)  ploadbar=  1.01145919657923E+05
 cg2d: Sum(rhs),rhsMax =  -7.33634211508159E+01  2.04554285002395E+00
(PID.TID 0000.0001)  ploadbar=  1.01144291007599E+05
 cg2d: Sum(rhs),rhsMax =  -7.34529846654094E+01  2.04335840210042E+00
(PID.TID 0000.0001)  ploadbar=  1.01142662357274E+05
 cg2d: Sum(rhs),rhsMax =  -7.35202066702829E+01  2.04184921383978E+00
(PID.TID 0000.0001)  ploadbar=  1.01141033706950E+05
 cg2d: Sum(rhs),rhsMax =  -7.35574675909919E+01  2.04122100366016E+00
(PID.TID 0000.0001)  ploadbar=  1.01139405056626E+05
 cg2d: Sum(rhs),rhsMax =  -7.35556792034236E+01  2.04172125579925E+00
(PID.TID 0000.0001)  ploadbar=  1.01137776406302E+05
 cg2d: Sum(rhs),rhsMax =  -7.34515767930440E+01  2.04507164394511E+00
(PID.TID 0000.0001)  ploadbar=  1.01137418553499E+05
 cg2d: Sum(rhs),rhsMax =  -7.32758934044552E+01  2.05043428104219E+00
(PID.TID 0000.0001)  ploadbar=  1.01137060700696E+05
 cg2d: Sum(rhs),rhsMax =  -7.30830907405992E+01  2.05629954905983E+00
(PID.TID 0000.0001)  ploadbar=  1.01136702847893E+05
 cg2d: Sum(rhs),rhsMax =  -7.29498626339388E+01  2.06050542074648E+00
(PID.TID 0000.0001)  ploadbar=  1.01136344995090E+05
 cg2d: Sum(rhs),rhsMax =  -7.29441352547491E+01  2.06110831618216E+00
(PID.TID 0000.0001)  ploadbar=  1.01135987142287E+05
 cg2d: Sum(rhs),rhsMax =  -7.31186830203084E+01  2.05661576573167E+00
(PID.TID 0000.0001)  ploadbar=  1.01135629289485E+05
 cg2d: Sum(rhs),rhsMax =  -7.35206106751970E+01  2.04579789051516E+00
(PID.TID 0000.0001)  ploadbar=  1.01135994913539E+05
 cg2d: Sum(rhs),rhsMax =  -7.41670929241084E+01  2.02838057985900E+00
(PID.TID 0000.0001)  ploadbar=  1.01136360537594E+05
 cg2d: Sum(rhs),rhsMax =  -7.51851134304582E+01  2.00131572483448E+00
(PID.TID 0000.0001)  ploadbar=  1.01136726161649E+05
 cg2d: Sum(rhs),rhsMax =  -7.65854930117884E+01  1.96510166695938E+00
(PID.TID 0000.0001)  ploadbar=  1.01137091785704E+05
 cg2d: Sum(rhs),rhsMax =  -7.79548549083922E+01  1.93094350465450E+00
(PID.TID 0000.0001)  ploadbar=  1.01137457409758E+05
 cg2d: Sum(rhs),rhsMax =  -7.82630437937010E+01  1.92368345491061E+00
(PID.TID 0000.0001)  ploadbar=  1.01137823033813E+05
 cg2d: Sum(rhs),rhsMax =  -7.79810296306086E+01  1.93095038896367E+00
(PID.TID 0000.0001)  ploadbar=  1.01137450092094E+05
 cg2d: Sum(rhs),rhsMax =  -7.79751176593569E+01  1.93137046130217E+00
(PID.TID 0000.0001)  ploadbar=  1.01137077150376E+05
 cg2d: Sum(rhs),rhsMax =  -7.80710647303408E+01  1.92923158634746E+00
(PID.TID 0000.0001)  ploadbar=  1.01136704208657E+05
 cg2d: Sum(rhs),rhsMax =  -7.81215845084871E+01  1.92817854995582E+00
(PID.TID 0000.0001)  ploadbar=  1.01136331266938E+05
 cg2d: Sum(rhs),rhsMax =  -7.80097279283646E+01  1.93109516935272E+00
(PID.TID 0000.0001)  ploadbar=  1.01135958325220E+05
 cg2d: Sum(rhs),rhsMax =  -7.77181231656444E+01  1.93844890347524E+00
(PID.TID 0000.0001)  ploadbar=  1.01135585383501E+05
 cg2d: Sum(rhs),rhsMax =  -7.73647109198279E+01  1.94746437050200E+00
(PID.TID 0000.0001)  ploadbar=  1.01136728475578E+05
 cg2d: Sum(rhs),rhsMax =  -7.69514634085331E+01  1.95813477421398E+00
(PID.TID 0000.0001)  ploadbar=  1.01137871567656E+05
 cg2d: Sum(rhs),rhsMax =  -7.64683910735970E+01  1.97076637655041E+00
(PID.TID 0000.0001)  ploadbar=  1.01139014659733E+05
 cg2d: Sum(rhs),rhsMax =  -7.59111792651173E+01  1.98553985659791E+00
(PID.TID 0000.0001)  ploadbar=  1.01140157751810E+05
 cg2d: Sum(rhs),rhsMax =  -7.52726226777130E+01  2.00273289551794E+00
(PID.TID 0000.0001)  ploadbar=  1.01141300843887E+05
 cg2d: Sum(rhs),rhsMax =  -7.45508251556521E+01  2.02250912889616E+00
(PID.TID 0000.0001)  ploadbar=  1.01142443935965E+05
 cg2d: Sum(rhs),rhsMax =  -7.38509177329144E+01  2.04206280251710E+00
(PID.TID 0000.0001)  ploadbar=  1.01143023462397E+05
 cg2d: Sum(rhs),rhsMax =  -7.31709376656725E+01  2.06142102674323E+00
(PID.TID 0000.0001)  ploadbar=  1.01143602988829E+05
 cg2d: Sum(rhs),rhsMax =  -7.25378149065995E+01  2.07978797999200E+00
(PID.TID 0000.0001)  ploadbar=  1.01144182515260E+05
 cg2d: Sum(rhs),rhsMax =  -7.19850606381951E+01  2.09612489428135E+00
(PID.TID 0000.0001)  ploadbar=  1.01144762041692E+05
 cg2d: Sum(rhs),rhsMax =  -7.15298841653207E+01  2.10981959615298E+00
(PID.TID 0000.0001)  ploadbar=  1.01145341568124E+05
 cg2d: Sum(rhs),rhsMax =  -7.11751001487856E+01  2.12067767473792E+00
(PID.TID 0000.0001)  ploadbar=  1.01145921094556E+05
 cg2d: Sum(rhs),rhsMax =  -7.09697935329872E+01  2.12715927566669E+00
(PID.TID 0000.0001)  ploadbar=  1.01145889334464E+05
 cg2d: Sum(rhs),rhsMax =  -7.08618655553646E+01  2.13074723369491E+00
(PID.TID 0000.0001)  ploadbar=  1.01145857574372E+05
 cg2d: Sum(rhs),rhsMax =  -7.08326445954570E+01  2.13197161314274E+00
(PID.TID 0000.0001)  ploadbar=  1.01145825814280E+05
 cg2d: Sum(rhs),rhsMax =  -7.08916656842910E+01  2.13053903901310E+00
(PID.TID 0000.0001)  ploadbar=  1.01145794054188E+05
 cg2d: Sum(rhs),rhsMax =  -7.10445229754928E+01  2.12629214575951E+00
(PID.TID 0000.0001)  ploadbar=  1.01145762294097E+05
 cg2d: Sum(rhs),rhsMax =  -7.12903584745727E+01  2.11929154922028E+00
(PID.TID 0000.0001)  ploadbar=  1.01145730534005E+05
 cg2d: Sum(rhs),rhsMax =  -7.15954676360701E+01  2.11055819404919E+00
(PID.TID 0000.0001)  ploadbar=  1.01145561120909E+05
 cg2d: Sum(rhs),rhsMax =  -7.19814587412762E+01  2.09950185425286E+00
(PID.TID 0000.0001)  ploadbar=  1.01145391707813E+05
 cg2d: Sum(rhs),rhsMax =  -7.25191516325246E+01  2.08415806203581E+00
(PID.TID 0000.0001)  ploadbar=  1.01145222294717E+05
 cg2d: Sum(rhs),rhsMax =  -7.31318237688836E+01  2.06688187918688E+00
(PID.TID 0000.0001)  ploadbar=  1.01145052881621E+05
 cg2d: Sum(rhs),rhsMax =  -7.37316836699425E+01  2.05021179818820E+00
(PID.TID 0000.0001)  ploadbar=  1.01144883468525E+05
 cg2d: Sum(rhs),rhsMax =  -7.43517657585225E+01  2.03321984447374E+00
(PID.TID 0000.0001)  ploadbar=  1.01144714055429E+05
 cg2d: Sum(rhs),rhsMax =  -7.49712685063671E+01  2.01656046955412E+00
(PID.TID 0000.0001)  ploadbar=  1.01144665561879E+05
 cg2d: Sum(rhs),rhsMax =  -7.55870593181207E+01  2.00030701576116E+00
(PID.TID 0000.0001)  ploadbar=  1.01144617068329E+05
 cg2d: Sum(rhs),rhsMax =  -7.61760346735093E+01  1.98504725103584E+00
(PID.TID 0000.0001)  ploadbar=  1.01144568574779E+05
 cg2d: Sum(rhs),rhsMax =  -7.67406353478560E+01  1.97067874208252E+00
(PID.TID 0000.0001)  ploadbar=  1.01144520081229E+05
 cg2d: Sum(rhs),rhsMax =  -7.72778498249226E+01  1.95724132853343E+00
(PID.TID 0000.0001)  ploadbar=  1.01144471587679E+05
 cg2d: Sum(rhs),rhsMax =  -7.77828358246484E+01  1.94481919664101E+00
(PID.TID 0000.0001)  ploadbar=  1.01144423094129E+05
 cg2d: Sum(rhs),rhsMax =  -7.82388495151063E+01  1.93376246300887E+00
(PID.TID 0000.0001)  ploadbar=  1.01145121478031E+05
 cg2d: Sum(rhs),rhsMax =  -7.86707489451142E+01  1.92342040146082E+00
(PID.TID 0000.0001)  ploadbar=  1.01145819861932E+05
 cg2d: Sum(rhs),rhsMax =  -7.90850536925084E+01  1.91361380303925E+00
(PID.TID 0000.0001)  ploadbar=  1.01146518245834E+05
 cg2d: Sum(rhs),rhsMax =  -7.94850176358774E+01  1.90424882693028E+00
(PID.TID 0000.0001)  ploadbar=  1.01147216629736E+05
 cg2d: Sum(rhs),rhsMax =  -7.98746897489029E+01  1.89521626939835E+00
(PID.TID 0000.0001)  ploadbar=  1.01147915013638E+05
 cg2d: Sum(rhs),rhsMax =  -8.02559631671599E+01  1.88646026304489E+00
(PID.TID 0000.0001)  ploadbar=  1.01148613397540E+05
 cg2d: Sum(rhs),rhsMax =  -8.05983984660327E+01  1.87868620015761E+00
(PID.TID 0000.0001)  ploadbar=  1.01148922860656E+05
 cg2d: Sum(rhs),rhsMax =  -8.09186239234046E+01  1.87148386473388E+00
(PID.TID 0000.0001)  ploadbar=  1.01149232323773E+05
 cg2d: Sum(rhs),rhsMax =  -8.12200621550484E+01  1.86476042326026E+00
(PID.TID 0000.0001)  ploadbar=  1.01149541786889E+05
 cg2d: Sum(rhs),rhsMax =  -8.14937155436767E+01  1.85870972821940E+00
(PID.TID 0000.0001)  ploadbar=  1.01149851250006E+05
 cg2d: Sum(rhs),rhsMax =  -8.17360214573999E+01  1.85339817607801E+00
(PID.TID 0000.0001)  ploadbar=  1.01150160713123E+05
 cg2d: Sum(rhs),rhsMax =  -8.19458029387583E+01  1.84883812277961E+00
(PID.TID 0000.0001)  ploadbar=  1.01150470176239E+05
 cg2d: Sum(rhs),rhsMax =  -8.21431707873287E+01  1.84455906022740E+00
(PID.TID 0000.0001)  ploadbar=  1.01150490389784E+05
 cg2d: Sum(rhs),rhsMax =  -8.23159789087033E+01  1.84082687142340E+00
(PID.TID 0000.0001)  ploadbar=  1.01150510603329E+05
 cg2d: Sum(rhs),rhsMax =  -8.24754865225921E+01  1.83738224386926E+00
(PID.TID 0000.0001)  ploadbar=  1.01150530816874E+05
 cg2d: Sum(rhs),rhsMax =  -8.26294551087908E+01  1.83404839760611E+00
(PID.TID 0000.0001)  ploadbar=  1.01150551030418E+05
 cg2d: Sum(rhs),rhsMax =  -8.27771147137182E+01  1.83083930170258E+00
(PID.TID 0000.0001)  ploadbar=  1.01150571243963E+05
 cg2d: Sum(rhs),rhsMax =  -8.29190320254428E+01  1.82774085151972E+00
(PID.TID 0000.0001)  ploadbar=  1.01150591457508E+05
 cg2d: Sum(rhs),rhsMax =  -8.30555392100299E+01  1.82482715375771E+00
(PID.TID 0000.0001)  ploadbar=  1.01149268762012E+05
 cg2d: Sum(rhs),rhsMax =  -8.31768969836628E+01  1.82230869898248E+00
(PID.TID 0000.0001)  ploadbar=  1.01147946066516E+05
 cg2d: Sum(rhs),rhsMax =  -8.33080550789070E+01  1.81963390571806E+00
(PID.TID 0000.0001)  ploadbar=  1.01146623371021E+05
 cg2d: Sum(rhs),rhsMax =  -8.34651175094271E+01  1.81645361140564E+00
(PID.TID 0000.0001)  ploadbar=  1.01145300675525E+05
 cg2d: Sum(rhs),rhsMax =  -8.36607911197431E+01  1.81249742717022E+00
(PID.TID 0000.0001)  ploadbar=  1.01143977980029E+05
 cg2d: Sum(rhs),rhsMax =  -8.39045028130901E+01  1.80756915993040E+00
(PID.TID 0000.0001)  ploadbar=  1.01142655284533E+05
 cg2d: Sum(rhs),rhsMax =  -8.41787063680082E+01  1.80199185979068E+00
(PID.TID 0000.0001)  ploadbar=  1.01142442587971E+05
 cg2d: Sum(rhs),rhsMax =  -8.44861242311631E+01  1.79571593461271E+00
(PID.TID 0000.0001)  ploadbar=  1.01142229891410E+05
 cg2d: Sum(rhs),rhsMax =  -8.48178498351077E+01  1.78894577022977E+00
(PID.TID 0000.0001)  ploadbar=  1.01142017194849E+05
 cg2d: Sum(rhs),rhsMax =  -8.51638017911541E+01  1.78190371607112E+00
(PID.TID 0000.0001)  ploadbar=  1.01141804498287E+05
 cg2d: Sum(rhs),rhsMax =  -8.55221909645088E+01  1.77463340585845E+00
(PID.TID 0000.0001)  ploadbar=  1.01141591801726E+05
 cg2d: Sum(rhs),rhsMax =  -8.58945138613675E+01  1.76710784904271E+00
(PID.TID 0000.0001)  ploadbar=  1.01141379105164E+05
 cg2d: Sum(rhs),rhsMax =  -8.62955181087764E+01  1.75906764880544E+00
(PID.TID 0000.0001)  ploadbar=  1.01141591447631E+05
 cg2d: Sum(rhs),rhsMax =  -8.67300635584237E+01  1.75043041333512E+00
(PID.TID 0000.0001)  ploadbar=  1.01141803790098E+05
 cg2d: Sum(rhs),rhsMax =  -8.71983084133479E+01  1.74121297825648E+00
(PID.TID 0000.0001)  ploadbar=  1.01142016132565E+05
 cg2d: Sum(rhs),rhsMax =  -8.77033527675350E+01  1.73137352946552E+00
(PID.TID 0000.0001)  ploadbar=  1.01142228475032E+05
 cg2d: Sum(rhs),rhsMax =  -8.82470944516662E+01  1.72089590361674E+00
(PID.TID 0000.0001)  ploadbar=  1.01142440817499E+05
 cg2d: Sum(rhs),rhsMax =  -8.88321636947406E+01  1.70975384318094E+00
(PID.TID 0000.0001)  ploadbar=  1.01142653159966E+05
 cg2d: Sum(rhs),rhsMax =  -8.94949778322173E+01  1.69726423672985E+00
(PID.TID 0000.0001)  ploadbar=  1.01141987421076E+05
 cg2d: Sum(rhs),rhsMax =  -9.02147498465291E+01  1.68387473088754E+00
(PID.TID 0000.0001)  ploadbar=  1.01141321682186E+05
 cg2d: Sum(rhs),rhsMax =  -9.09756527720850E+01  1.66991893558277E+00
(PID.TID 0000.0001)  ploadbar=  1.01140655943296E+05
 cg2d: Sum(rhs),rhsMax =  -9.17889858140471E+01  1.65522603054183E+00
(PID.TID 0000.0001)  ploadbar=  1.01139990204406E+05
 cg2d: Sum(rhs),rhsMax =  -9.26655796709366E+01  1.63964821108998E+00
(PID.TID 0000.0001)  ploadbar=  1.01139324465516E+05
 cg2d: Sum(rhs),rhsMax =  -9.36098254760392E+01  1.62316498984751E+00
(PID.TID 0000.0001)  ploadbar=  1.01138658726626E+05
 cg2d: Sum(rhs),rhsMax =  -9.47381178027704E+01  1.60395065995705E+00
(PID.TID 0000.0001)  ploadbar=  1.01138459479690E+05
 cg2d: Sum(rhs),rhsMax =  -9.62213720340250E+01  1.57939829371285E+00
(PID.TID 0000.0001)  ploadbar=  1.01138260232754E+05
 cg2d: Sum(rhs),rhsMax =  -9.81418074465654E+01  1.54871699655627E+00
(PID.TID 0000.0001)  ploadbar=  1.01138060985818E+05
 cg2d: Sum(rhs),rhsMax =  -1.00524632783754E+02  1.51227754447018E+00
(PID.TID 0000.0001)  ploadbar=  1.01137861738883E+05
 cg2d: Sum(rhs),rhsMax =  -1.03378618253325E+02  1.47083681438215E+00
(PID.TID 0000.0001)  ploadbar=  1.01137662491947E+05
 cg2d: Sum(rhs),rhsMax =  -1.06673204726699E+02  1.42575083172402E+00
(PID.TID 0000.0001)  ploadbar=  1.01137463245011E+05
 cg2d: Sum(rhs),rhsMax =  -1.09463326380566E+02  1.38972925606662E+00
(PID.TID 0000.0001)  ploadbar=  1.01136119218212E+05
 cg2d: Sum(rhs),rhsMax =  -1.08854978884847E+02  1.39780158619005E+00
(PID.TID 0000.0001)  ploadbar=  1.01134775191413E+05
 cg2d: Sum(rhs),rhsMax =  -1.08297561679698E+02  1.40528695636654E+00
(PID.TID 0000.0001)  ploadbar=  1.01133431164614E+05
 cg2d: Sum(rhs),rhsMax =  -1.07807136790516E+02  1.41195416130178E+00
(PID.TID 0000.0001)  ploadbar=  1.01132087137815E+05
 cg2d: Sum(rhs),rhsMax =  -1.07386931053538E+02  1.41773456883200E+00
(PID.TID 0000.0001)  ploadbar=  1.01130743111016E+05
 cg2d: Sum(rhs),rhsMax =  -1.07017840104050E+02  1.42285992132001E+00
(PID.TID 0000.0001)  ploadbar=  1.01129399084216E+05
 cg2d: Sum(rhs),rhsMax =  -1.06656031241853E+02  1.42791294184620E+00
(PID.TID 0000.0001)  ploadbar=  1.01128819848227E+05
 cg2d: Sum(rhs),rhsMax =  -1.06233653926530E+02  1.43380587227241E+00
(PID.TID 0000.0001)  ploadbar=  1.01128240612238E+05
 cg2d: Sum(rhs),rhsMax =  -1.05728718677914E+02  1.44085820471719E+00
(PID.TID 0000.0001)  ploadbar=  1.01127661376249E+05
 cg2d: Sum(rhs),rhsMax =  -1.05158954481806E+02  1.44885826848558E+00
(PID.TID 0000.0001)  ploadbar=  1.01127082140260E+05
 cg2d: Sum(rhs),rhsMax =  -1.04542598233558E+02  1.45758070549984E+00
(PID.TID 0000.0001)  ploadbar=  1.01126502904271E+05
 cg2d: Sum(rhs),rhsMax =  -1.03915526730310E+02  1.46654236970936E+00
(PID.TID 0000.0001)  ploadbar=  1.01125923668282E+05
 cg2d: Sum(rhs),rhsMax =  -1.03283935883484E+02  1.47566706995342E+00
(PID.TID 0000.0001)  ploadbar=  1.01125500023168E+05
 cg2d: Sum(rhs),rhsMax =  -1.02694182865705E+02  1.48428675511614E+00
(PID.TID 0000.0001)  ploadbar=  1.01125076378054E+05
 cg2d: Sum(rhs),rhsMax =  -1.02137140183525E+02  1.49251400294310E+00
(PID.TID 0000.0001)  ploadbar=  1.01124652732940E+05
 cg2d: Sum(rhs),rhsMax =  -1.01600255263309E+02  1.50051746830129E+00
(PID.TID 0000.0001)  ploadbar=  1.01124229087826E+05
 cg2d: Sum(rhs),rhsMax =  -1.01075783379561E+02  1.50840359094661E+00
(PID.TID 0000.0001)  ploadbar=  1.01123805442711E+05
 cg2d: Sum(rhs),rhsMax =  -1.00568562058135E+02  1.51609238818389E+00
(PID.TID 0000.0001)  ploadbar=  1.01123381797597E+05
 cg2d: Sum(rhs),rhsMax =  -1.00028194842126E+02  1.52440220118115E+00
(PID.TID 0000.0001)  ploadbar=  1.01122370209204E+05
 cg2d: Sum(rhs),rhsMax =  -9.94574236527729E+01  1.53330765125231E+00
(PID.TID 0000.0001)  ploadbar=  1.01121358620811E+05
 cg2d: Sum(rhs),rhsMax =  -9.88302690850360E+01  1.54323160958411E+00
(PID.TID 0000.0001)  ploadbar=  1.01120347032418E+05
 cg2d: Sum(rhs),rhsMax =  -9.81435818573447E+01  1.55425990306130E+00
(PID.TID 0000.0001)  ploadbar=  1.01119335444026E+05
 cg2d: Sum(rhs),rhsMax =  -9.74461715673648E+01  1.56565057979842E+00
(PID.TID 0000.0001)  ploadbar=  1.01118323855633E+05
 cg2d: Sum(rhs),rhsMax =  -9.67658077185232E+01  1.57695704936432E+00
(PID.TID 0000.0001)  ploadbar=  1.01117312267240E+05
 cg2d: Sum(rhs),rhsMax =  -9.61690939608033E+01  1.58705466493527E+00
(PID.TID 0000.0001)  ploadbar=  1.01116867832439E+05
 cg2d: Sum(rhs),rhsMax =  -9.56382461307516E+01  1.59619004533254E+00
(PID.TID 0000.0001)  ploadbar=  1.01116423397639E+05
 cg2d: Sum(rhs),rhsMax =  -9.51825873980201E+01  1.60416729907446E+00
(PID.TID 0000.0001)  ploadbar=  1.01115978962839E+05
 cg2d: Sum(rhs),rhsMax =  -9.48284809278157E+01  1.61050213188253E+00
(PID.TID 0000.0001)  ploadbar=  1.01115534528039E+05
 cg2d: Sum(rhs),rhsMax =  -9.45824107495521E+01  1.61504307362675E+00
(PID.TID 0000.0001)  ploadbar=  1.01115090093238E+05
 cg2d: Sum(rhs),rhsMax =  -9.44441050194707E+01  1.61776349204771E+00
(PID.TID 0000.0001)  ploadbar=  1.01114645658438E+05
 cg2d: Sum(rhs),rhsMax =  -9.43943742917203E+01  1.61897061764945E+00
(PID.TID 0000.0001)  ploadbar=  1.01115252584199E+05
 cg2d: Sum(rhs),rhsMax =  -9.44202457774550E+01  1.61887750746121E+00
(PID.TID 0000.0001)  ploadbar=  1.01115859509961E+05
 cg2d: Sum(rhs),rhsMax =  -9.44950893843441E+01  1.61793939838748E+00
(PID.TID 0000.0001)  ploadbar=  1.01116466435722E+05
 cg2d: Sum(rhs),rhsMax =  -9.45815196765257E+01  1.61679779470163E+00
(PID.TID 0000.0001)  ploadbar=  1.01117073361483E+05
 cg2d: Sum(rhs),rhsMax =  -9.46542561215078E+01  1.61588267351735E+00
(PID.TID 0000.0001)  ploadbar=  1.01117680287245E+05
 cg2d: Sum(rhs),rhsMax =  -9.47033076053559E+01  1.61536050199572E+00
(PID.TID 0000.0001)  ploadbar=  1.01118287213006E+05
 cg2d: Sum(rhs),rhsMax =  -9.47136711859527E+01  1.61547414875762E+00
(PID.TID 0000.0001)  ploadbar=  1.01119102772382E+05
 cg2d: Sum(rhs),rhsMax =  -9.46962916526400E+01  1.61603520116179E+00
(PID.TID 0000.0001)  ploadbar=  1.01119918331758E+05
 cg2d: Sum(rhs),rhsMax =  -9.46814270223223E+01  1.61652585940521E+00
(PID.TID 0000.0001)  ploadbar=  1.01120733891133E+05
 cg2d: Sum(rhs),rhsMax =  -9.46946166359552E+01  1.61650792156506E+00
(PID.TID 0000.0001)  ploadbar=  1.01121549450509E+05
 cg2d: Sum(rhs),rhsMax =  -9.47615541337463E+01  1.61554068949875E+00
(PID.TID 0000.0001)  ploadbar=  1.01122365009885E+05
 cg2d: Sum(rhs),rhsMax =  -9.48952736980849E+01  1.61340485276979E+00
(PID.TID 0000.0001)  ploadbar=  1.01123180569261E+05
 cg2d: Sum(rhs),rhsMax =  -9.51093631698910E+01  1.60994896389722E+00
(PID.TID 0000.0001)  ploadbar=  1.01122285011461E+05
 cg2d: Sum(rhs),rhsMax =  -9.53772080509748E+01  1.60563870829775E+00
(PID.TID 0000.0001)  ploadbar=  1.01121389453661E+05
 cg2d: Sum(rhs),rhsMax =  -9.56779862205931E+01  1.60083577021083E+00
(PID.TID 0000.0001)  ploadbar=  1.01120493895861E+05
 cg2d: Sum(rhs),rhsMax =  -9.59643396658130E+01  1.59633404483427E+00
(PID.TID 0000.0001)  ploadbar=  1.01119598338061E+05
 cg2d: Sum(rhs),rhsMax =  -9.62358941407400E+01  1.59213333687680E+00
(PID.TID 0000.0001)  ploadbar=  1.01118702780261E+05
 cg2d: Sum(rhs),rhsMax =  -9.65126282320820E+01  1.58789768630560E+00
(PID.TID 0000.0001)  ploadbar=  1.01117807222461E+05
 cg2d: Sum(rhs),rhsMax =  -9.67573184832627E+01  1.58420897777722E+00
(PID.TID 0000.0001)  ploadbar=  1.01118474142604E+05
 cg2d: Sum(rhs),rhsMax =  -9.69436196381956E+01  1.58148515813043E+00
(PID.TID 0000.0001)  ploadbar=  1.01119141062747E+05
 cg2d: Sum(rhs),rhsMax =  -9.70684177816713E+01  1.57976478002963E+00
(PID.TID 0000.0001)  ploadbar=  1.01119807982889E+05
 cg2d: Sum(rhs),rhsMax =  -9.71450126573600E+01  1.57882296049870E+00
(PID.TID 0000.0001)  ploadbar=  1.01120474903032E+05
 cg2d: Sum(rhs),rhsMax =  -9.71815578945080E+01  1.57852243345007E+00
(PID.TID 0000.0001)  ploadbar=  1.01121141823175E+05
 cg2d: Sum(rhs),rhsMax =  -9.71866083951970E+01  1.57871994406289E+00
(PID.TID 0000.0001)  ploadbar=  1.01121808743317E+05
 cg2d: Sum(rhs),rhsMax =  -9.71579492565233E+01  1.57948128353720E+00
(PID.TID 0000.0001)  ploadbar=  1.01122512149178E+05
 cg2d: Sum(rhs),rhsMax =  -9.70890687636968E+01  1.58091190066910E+00
(PID.TID 0000.0001)  ploadbar=  1.01123215555039E+05
 cg2d: Sum(rhs),rhsMax =  -9.69793414099827E+01  1.58302279160349E+00
(PID.TID 0000.0001)  ploadbar=  1.01123918960900E+05
 cg2d: Sum(rhs),rhsMax =  -9.68204742231008E+01  1.58595286665579E+00
(PID.TID 0000.0001)  ploadbar=  1.01124622366761E+05
 cg2d: Sum(rhs),rhsMax =  -9.66144886653062E+01  1.58967511876546E+00
(PID.TID 0000.0001)  ploadbar=  1.01125325772622E+05
 cg2d: Sum(rhs),rhsMax =  -9.63814698585996E+01  1.59386452294188E+00
(PID.TID 0000.0001)  ploadbar=  1.01126029178483E+05
 cg2d: Sum(rhs),rhsMax =  -9.61333330708304E+01  1.59831227911434E+00
(PID.TID 0000.0001)  ploadbar=  1.01126524636224E+05
 cg2d: Sum(rhs),rhsMax =  -9.58945404999891E+01  1.60261307876249E+00
(PID.TID 0000.0001)  ploadbar=  1.01127020093964E+05
 cg2d: Sum(rhs),rhsMax =  -9.56663202752196E+01  1.60674237203187E+00
(PID.TID 0000.0001)  ploadbar=  1.01127515551705E+05
 cg2d: Sum(rhs),rhsMax =  -9.54513214994703E+01  1.61065103247993E+00
(PID.TID 0000.0001)  ploadbar=  1.01128011009446E+05
 cg2d: Sum(rhs),rhsMax =  -9.52483443262764E+01  1.61435294450778E+00
(PID.TID 0000.0001)  ploadbar=  1.01128506467187E+05
 cg2d: Sum(rhs),rhsMax =  -9.50507445577121E+01  1.61795714033486E+00
(PID.TID 0000.0001)  ploadbar=  1.01129001924927E+05
 cg2d: Sum(rhs),rhsMax =  -9.48722453486860E+01  1.62129099862177E+00
(PID.TID 0000.0001)  ploadbar=  1.01129573714285E+05
 cg2d: Sum(rhs),rhsMax =  -9.47063705709024E+01  1.62446122227250E+00
(PID.TID 0000.0001)  ploadbar=  1.01130145503643E+05
 cg2d: Sum(rhs),rhsMax =  -9.45683445230624E+01  1.62719902961133E+00
(PID.TID 0000.0001)  ploadbar=  1.01130717293001E+05
 cg2d: Sum(rhs),rhsMax =  -9.44710688471211E+01  1.62927677438096E+00
(PID.TID 0000.0001)  ploadbar=  1.01131289082359E+05
 cg2d: Sum(rhs),rhsMax =  -9.44303221774503E+01  1.63041526156698E+00
(PID.TID 0000.0001)  ploadbar=  1.01131860871717E+05
 cg2d: Sum(rhs),rhsMax =  -9.44576383662776E+01  1.63041054126228E+00
(PID.TID 0000.0001)  ploadbar=  1.01132432661075E+05
 cg2d: Sum(rhs),rhsMax =  -9.45345937860116E+01  1.62954471315553E+00
(PID.TID 0000.0001)  ploadbar=  1.01133333122255E+05
 cg2d: Sum(rhs),rhsMax =  -9.47121035249462E+01  1.62694626992616E+00
(PID.TID 0000.0001)  ploadbar=  1.01134233583435E+05
 cg2d: Sum(rhs),rhsMax =  -9.49475557558542E+01  1.62336208009015E+00
(PID.TID 0000.0001)  ploadbar=  1.01135134044615E+05
 cg2d: Sum(rhs),rhsMax =  -9.51745806704366E+01  1.61993451746232E+00
(PID.TID 0000.0001)  ploadbar=  1.01136034505795E+05
 cg2d: Sum(rhs),rhsMax =  -9.54586778169941E+01  1.61555109057453E+00
(PID.TID 0000.0001)  ploadbar=  1.01136934966975E+05
 cg2d: Sum(rhs),rhsMax =  -9.58707808619008E+01  1.60903416529872E+00
(PID.TID 0000.0001)  ploadbar=  1.01137835428155E+05
 cg2d: Sum(rhs),rhsMax =  -9.63239450564084E+01  1.60190878844343E+00
(PID.TID 0000.0001)  ploadbar=  1.01139364066157E+05
 cg2d: Sum(rhs),rhsMax =  -9.67018561229755E+01  1.59610884864273E+00
(PID.TID 0000.0001)  ploadbar=  1.01140892704160E+05
 cg2d: Sum(rhs),rhsMax =  -9.69490746769525E+01  1.59251305779096E+00
(PID.TID 0000.0001)  ploadbar=  1.01142421342162E+05
 cg2d: Sum(rhs),rhsMax =  -9.71221519699149E+01  1.59016248065369E+00
(PID.TID 0000.0001)  ploadbar=  1.01143949980165E+05
 cg2d: Sum(rhs),rhsMax =  -9.72821946693324E+01  1.58804357474710E+00
(PID.TID 0000.0001)  ploadbar=  1.01145478618167E+05
 cg2d: Sum(rhs),rhsMax =  -9.74187313490553E+01  1.58632384386842E+00
(PID.TID 0000.0001)  ploadbar=  1.01147007256170E+05
 cg2d: Sum(rhs),rhsMax =  -9.76902697486718E+01  1.58237784902436E+00
(PID.TID 0000.0001)  ploadbar=  1.01148400083483E+05
 cg2d: Sum(rhs),rhsMax =  -9.80647102899573E+01  1.57675849042167E+00
(PID.TID 0000.0001)  ploadbar=  1.01149792910796E+05
 cg2d: Sum(rhs),rhsMax =  -9.85588587166807E+01  1.56923282817087E+00
(PID.TID 0000.0001)  ploadbar=  1.01151185738108E+05
 cg2d: Sum(rhs),rhsMax =  -9.93348963878985E+01  1.55731007946837E+00
(PID.TID 0000.0001)  ploadbar=  1.01152578565421E+05
 cg2d: Sum(rhs),rhsMax =  -1.00517952720977E+02  1.53927467840704E+00
(PID.TID 0000.0001)  ploadbar=  1.01153971392734E+05
 cg2d: Sum(rhs),rhsMax =  -1.02116144947790E+02  1.51543354822476E+00
(PID.TID 0000.0001)  ploadbar=  1.01155364220047E+05
 cg2d: Sum(rhs),rhsMax =  -1.04018763100531E+02  1.48796544238147E+00
(PID.TID 0000.0001)  ploadbar=  1.01157482078909E+05
 cg2d: Sum(rhs),rhsMax =  -1.06117309353266E+02  1.45879416961754E+00
(PID.TID 0000.0001)  ploadbar=  1.01159599937771E+05
 cg2d: Sum(rhs),rhsMax =  -1.08223809902965E+02  1.43065689462074E+00
(PID.TID 0000.0001)  ploadbar=  1.01161717796633E+05
 cg2d: Sum(rhs),rhsMax =  -1.10117623683761E+02  1.40631066481624E+00
(PID.TID 0000.0001)  ploadbar=  1.01163835655495E+05
 cg2d: Sum(rhs),rhsMax =  -1.11861370000442E+02  1.38464278323981E+00
(PID.TID 0000.0001)  ploadbar=  1.01165953514356E+05
 cg2d: Sum(rhs),rhsMax =  -1.13609351378274E+02  1.36358547286667E+00
(PID.TID 0000.0001)  ploadbar=  1.01168071373218E+05
 cg2d: Sum(rhs),rhsMax =  -1.15233983431665E+02  1.34460681141582E+00
(PID.TID 0000.0001)  ploadbar=  1.01168555805609E+05
 cg2d: Sum(rhs),rhsMax =  -1.16936589841083E+02  1.32527326019163E+00
(PID.TID 0000.0001)  ploadbar=  1.01169040237999E+05
 cg2d: Sum(rhs),rhsMax =  -1.18754908329913E+02  1.30522114341705E+00
(PID.TID 0000.0001)  ploadbar=  1.01169524670390E+05
 cg2d: Sum(rhs),rhsMax =  -1.20666483297377E+02  1.28477607039957E+00
(PID.TID 0000.0001)  ploadbar=  1.01170009102780E+05
 cg2d: Sum(rhs),rhsMax =  -1.22606560437420E+02  1.26466633700172E+00
(PID.TID 0000.0001)  ploadbar=  1.01170493535171E+05
 cg2d: Sum(rhs),rhsMax =  -1.24461706491184E+02  1.24602039395788E+00
(PID.TID 0000.0001)  ploadbar=  1.01170977967561E+05
 cg2d: Sum(rhs),rhsMax =  -1.26232204397465E+02  1.22874760417697E+00
(PID.TID 0000.0001)  ploadbar=  1.01170232264069E+05
 cg2d: Sum(rhs),rhsMax =  -1.28172434426428E+02  1.21034572313303E+00
(PID.TID 0000.0001)  ploadbar=  1.01169486560577E+05
 cg2d: Sum(rhs),rhsMax =  -1.29914230349042E+02  1.19430702342540E+00
(PID.TID 0000.0001)  ploadbar=  1.01168740857086E+05
 cg2d: Sum(rhs),rhsMax =  -1.31143782002311E+02  1.18328694778990E+00
(PID.TID 0000.0001)  ploadbar=  1.01167995153594E+05
 cg2d: Sum(rhs),rhsMax =  -1.32480702716600E+02  1.17150919081187E+00
(PID.TID 0000.0001)  ploadbar=  1.01167249450102E+05
 cg2d: Sum(rhs),rhsMax =  -1.33825414625024E+02  1.15988505469908E+00
(PID.TID 0000.0001)  ploadbar=  1.01166503746610E+05
 cg2d: Sum(rhs),rhsMax =  -1.35102548531556E+02  1.14904481095962E+00
(PID.TID 0000.0001)  ploadbar=  1.01165742249217E+05
 cg2d: Sum(rhs),rhsMax =  -1.32423160905677E+02  1.17239609910063E+00
(PID.TID 0000.0001)  ploadbar=  1.01164980751824E+05
 cg2d: Sum(rhs),rhsMax =  -1.27358299870788E+02  1.21909880046341E+00
(PID.TID 0000.0001)  ploadbar=  1.01164219254431E+05
 cg2d: Sum(rhs),rhsMax =  -1.23104932114208E+02  1.26127067509971E+00
(PID.TID 0000.0001)  ploadbar=  1.01163457757038E+05
 cg2d: Sum(rhs),rhsMax =  -1.19587023343407E+02  1.29839535012672E+00
(PID.TID 0000.0001)  ploadbar=  1.01162696259645E+05
 cg2d: Sum(rhs),rhsMax =  -1.16656285161886E+02  1.33100367614591E+00
(PID.TID 0000.0001)  ploadbar=  1.01161934762252E+05
 cg2d: Sum(rhs),rhsMax =  -1.14137984646826E+02  1.36039276442294E+00
(PID.TID 0000.0001)  ploadbar=  1.01162567495822E+05
 cg2d: Sum(rhs),rhsMax =  -1.11911067194555E+02  1.38751826741968E+00
(PID.TID 0000.0001)  ploadbar=  1.01163200229392E+05
 cg2d: Sum(rhs),rhsMax =  -1.09894391366617E+02  1.41306582471890E+00
(PID.TID 0000.0001)  ploadbar=  1.01163832962962E+05
 cg2d: Sum(rhs),rhsMax =  -1.08052546501574E+02  1.43726597856594E+00
(PID.TID 0000.0001)  ploadbar=  1.01164465696531E+05
 cg2d: Sum(rhs),rhsMax =  -1.06401097061353E+02  1.45971161281213E+00
(PID.TID 0000.0001)  ploadbar=  1.01165098430101E+05
 cg2d: Sum(rhs),rhsMax =  -1.04998009396635E+02  1.47937588668099E+00
(PID.TID 0000.0001)  ploadbar=  1.01165731163671E+05
 cg2d: Sum(rhs),rhsMax =  -1.03953258884880E+02  1.49440251646813E+00
(PID.TID 0000.0001)  ploadbar=  1.01165676707698E+05
 cg2d: Sum(rhs),rhsMax =  -1.03298639504851E+02  1.50402858178327E+00
(PID.TID 0000.0001)  ploadbar=  1.01165622251725E+05
 cg2d: Sum(rhs),rhsMax =  -1.02960436231417E+02  1.50911952459674E+00
(PID.TID 0000.0001)  ploadbar=  1.01165567795751E+05
 cg2d: Sum(rhs),rhsMax =  -1.02774746493048E+02  1.51198634394916E+00
(PID.TID 0000.0001)  ploadbar=  1.01165513339778E+05
 cg2d: Sum(rhs),rhsMax =  -1.02607649085360E+02  1.51457418684871E+00
(PID.TID 0000.0001)  ploadbar=  1.01165458883805E+05
 cg2d: Sum(rhs),rhsMax =  -1.02403254848735E+02  1.51770332190820E+00
(PID.TID 0000.0001)  ploadbar=  1.01165404427832E+05
 cg2d: Sum(rhs),rhsMax =  -1.02105742221010E+02  1.52220908355667E+00
(PID.TID 0000.0001)  ploadbar=  1.01165800804172E+05
 cg2d: Sum(rhs),rhsMax =  -1.01766146847636E+02  1.52734616234184E+00
(PID.TID 0000.0001)  ploadbar=  1.01166197180513E+05
 cg2d: Sum(rhs),rhsMax =  -1.01464758799639E+02  1.53191058608111E+00
(PID.TID 0000.0001)  ploadbar=  1.01166593556854E+05
 cg2d: Sum(rhs),rhsMax =  -1.01263554801945E+02  1.53494865775697E+00
(PID.TID 0000.0001)  ploadbar=  1.01166989933194E+05
 cg2d: Sum(rhs),rhsMax =  -1.01193282864597E+02  1.53597114831480E+00
(PID.TID 0000.0001)  ploadbar=  1.01167386309535E+05
 cg2d: Sum(rhs),rhsMax =  -1.01268973592178E+02  1.53473932394821E+00
(PID.TID 0000.0001)  ploadbar=  1.01167782685876E+05
 cg2d: Sum(rhs),rhsMax =  -1.01462611766354E+02  1.53169291750494E+00
(PID.TID 0000.0001)  ploadbar=  1.01168027412818E+05
 cg2d: Sum(rhs),rhsMax =  -1.01751805747167E+02  1.52718625494818E+00
(PID.TID 0000.0001)  ploadbar=  1.01168272139760E+05
 cg2d: Sum(rhs),rhsMax =  -1.00360855482232E+02  1.54815810247885E+00
(PID.TID 0000.0001)  ploadbar=  1.01168516866702E+05
 cg2d: Sum(rhs),rhsMax =  -9.89622009923669E+01  1.56980042527475E+00
(PID.TID 0000.0001)  ploadbar=  1.01168761593644E+05
 cg2d: Sum(rhs),rhsMax =  -9.77707959191322E+01  1.58864476660254E+00
(PID.TID 0000.0001)  ploadbar=  1.01169006320586E+05
 cg2d: Sum(rhs),rhsMax =  -9.66539917889587E+01  1.60666707623441E+00
(PID.TID 0000.0001)  ploadbar=  1.01169251047528E+05
 cg2d: Sum(rhs),rhsMax =  -9.54712126811428E+01  1.62627898630779E+00
(PID.TID 0000.0001)  ploadbar=  1.01168905842618E+05
 cg2d: Sum(rhs),rhsMax =  -9.41419033601055E+01  1.64898845159414E+00
(PID.TID 0000.0001)  ploadbar=  1.01168560637708E+05
 cg2d: Sum(rhs),rhsMax =  -9.26473680475607E+01  1.67537115215121E+00
(PID.TID 0000.0001)  ploadbar=  1.01168215432798E+05
 cg2d: Sum(rhs),rhsMax =  -9.10411871001942E+01  1.70474524918515E+00
(PID.TID 0000.0001)  ploadbar=  1.01167870227888E+05
 cg2d: Sum(rhs),rhsMax =  -8.93800810935369E+01  1.73627332724042E+00
(PID.TID 0000.0001)  ploadbar=  1.01167525022978E+05
 cg2d: Sum(rhs),rhsMax =  -8.77162795002244E+01  1.76907685192423E+00
(PID.TID 0000.0001)  ploadbar=  1.01167179818068E+05
 cg2d: Sum(rhs),rhsMax =  -8.61658220027539E+01  1.80079155017723E+00
(PID.TID 0000.0001)  ploadbar=  1.01168518806873E+05
 cg2d: Sum(rhs),rhsMax =  -8.47905501007349E+01  1.82989247139711E+00
(PID.TID 0000.0001)  ploadbar=  1.01169857795678E+05
 cg2d: Sum(rhs),rhsMax =  -8.35968561334437E+01  1.85591889424268E+00
(PID.TID 0000.0001)  ploadbar=  1.01171196784484E+05
 cg2d: Sum(rhs),rhsMax =  -8.25407570751685E+01  1.87956193143864E+00
(PID.TID 0000.0001)  ploadbar=  1.01172535773289E+05
 cg2d: Sum(rhs),rhsMax =  -8.15619033264876E+01  1.90201050786006E+00
(PID.TID 0000.0001)  ploadbar=  1.01173874762094E+05
 cg2d: Sum(rhs),rhsMax =  -8.06201757094191E+01  1.92410728550427E+00
(PID.TID 0000.0001)  ploadbar=  1.01175213750899E+05
 cg2d: Sum(rhs),rhsMax =  -7.97363662571562E+01  1.94534167879028E+00
(PID.TID 0000.0001)  ploadbar=  1.01176143335039E+05
 cg2d: Sum(rhs),rhsMax =  -7.89455626995469E+01  1.96475904179881E+00
(PID.TID 0000.0001)  ploadbar=  1.01177072919179E+05
 cg2d: Sum(rhs),rhsMax =  -7.82938171044810E+01  1.98106203188897E+00
(PID.TID 0000.0001)  ploadbar=  1.01178002503319E+05
 cg2d: Sum(rhs),rhsMax =  -7.77849664376147E+01  1.99397878891642E+00
(PID.TID 0000.0001)  ploadbar=  1.01178932087458E+05
 cg2d: Sum(rhs),rhsMax =  -7.74081851612275E+01  2.00364506649187E+00
(PID.TID 0000.0001)  ploadbar=  1.01179861671598E+05
 cg2d: Sum(rhs),rhsMax =  -7.71707939801934E+01  2.00976383710625E+00
(PID.TID 0000.0001)  ploadbar=  1.01180791255738E+05
 cg2d: Sum(rhs),rhsMax =  -7.70899306147001E+01  2.01180748095678E+00
(PID.TID 0000.0001)  ploadbar=  1.01181729305013E+05
 cg2d: Sum(rhs),rhsMax =  -7.71741028071969E+01  2.00952501376659E+00
(PID.TID 0000.0001)  ploadbar=  1.01182667354287E+05
 cg2d: Sum(rhs),rhsMax =  -7.73813930855976E+01  2.00402729622656E+00
(PID.TID 0000.0001)  ploadbar=  1.01183605403562E+05
 cg2d: Sum(rhs),rhsMax =  -7.77335624357459E+01  1.99480274771880E+00
(PID.TID 0000.0001)  ploadbar=  1.01184543452837E+05
 cg2d: Sum(rhs),rhsMax =  -7.80632856168264E+01  1.98619497158481E+00
(PID.TID 0000.0001)  ploadbar=  1.01185481502111E+05
 cg2d: Sum(rhs),rhsMax =  -7.83522621620979E+01  1.97864656208966E+00
(PID.TID 0000.0001)  ploadbar=  1.01186419551386E+05
 cg2d: Sum(rhs),rhsMax =  -7.86284548026654E+01  1.97153082224689E+00
(PID.TID 0000.0001)  ploadbar=  1.01186481377537E+05
 cg2d: Sum(rhs),rhsMax =  -7.88631342123440E+01  1.96555303626748E+00
(PID.TID 0000.0001)  ploadbar=  1.01186543203688E+05
 cg2d: Sum(rhs),rhsMax =  -7.90582792342339E+01  1.96063900780600E+00
(PID.TID 0000.0001)  ploadbar=  1.01186605029839E+05
 cg2d: Sum(rhs),rhsMax =  -7.92313119158321E+01  1.95633784127575E+00
(PID.TID 0000.0001)  ploadbar=  1.01186666855990E+05
 cg2d: Sum(rhs),rhsMax =  -7.94006477000957E+01  1.95218196031705E+00
(PID.TID 0000.0001)  ploadbar=  1.01186728682141E+05
 cg2d: Sum(rhs),rhsMax =  -7.95823955367421E+01  1.94776973544620E+00
(PID.TID 0000.0001)  ploadbar=  1.01186790508292E+05
 cg2d: Sum(rhs),rhsMax =  -7.97983434722926E+01  1.94251346132837E+00
(PID.TID 0000.0001)  ploadbar=  1.01187572484857E+05
 cg2d: Sum(rhs),rhsMax =  -8.00588121436654E+01  1.93617680791446E+00
(PID.TID 0000.0001)  ploadbar=  1.01188354461421E+05
 cg2d: Sum(rhs),rhsMax =  -8.03616989920163E+01  1.92882581189624E+00
(PID.TID 0000.0001)  ploadbar=  1.01189136437985E+05
 cg2d: Sum(rhs),rhsMax =  -8.06941119444717E+01  1.92078623831979E+00
(PID.TID 0000.0001)  ploadbar=  1.01189918414549E+05
 cg2d: Sum(rhs),rhsMax =  -8.10318941137887E+01  1.91264086364501E+00
(PID.TID 0000.0001)  ploadbar=  1.01190700391114E+05
 cg2d: Sum(rhs),rhsMax =  -8.13761438621895E+01  1.90436139835198E+00
(PID.TID 0000.0001)  ploadbar=  1.01191482367678E+05
 cg2d: Sum(rhs),rhsMax =  -8.17334102473016E+01  1.89585391163013E+00
(PID.TID 0000.0001)  ploadbar=  1.01191512919352E+05
 cg2d: Sum(rhs),rhsMax =  -8.21074000432289E+01  1.88703858514422E+00
(PID.TID 0000.0001)  ploadbar=  1.01191543471026E+05
 cg2d: Sum(rhs),rhsMax =  -8.25044180699194E+01  1.87777891846601E+00
(PID.TID 0000.0001)  ploadbar=  1.01191574022700E+05
 cg2d: Sum(rhs),rhsMax =  -8.29306566504628E+01  1.86794597957145E+00
(PID.TID 0000.0001)  ploadbar=  1.01191604574374E+05
 cg2d: Sum(rhs),rhsMax =  -8.33891922071454E+01  1.85748550444724E+00
(PID.TID 0000.0001)  ploadbar=  1.01191635126048E+05
 cg2d: Sum(rhs),rhsMax =  -8.38803700673525E+01  1.84640764893136E+00
(PID.TID 0000.0001)  ploadbar=  1.01191665677722E+05
 cg2d: Sum(rhs),rhsMax =  -8.44304490445480E+01  1.83417318897930E+00
(PID.TID 0000.0001)  ploadbar=  1.01192301557463E+05
 cg2d: Sum(rhs),rhsMax =  -8.50103789705103E+01  1.82145130568594E+00
(PID.TID 0000.0001)  ploadbar=  1.01192937437204E+05
 cg2d: Sum(rhs),rhsMax =  -8.56090647658277E+01  1.80849682711109E+00
(PID.TID 0000.0001)  ploadbar=  1.01193573316945E+05
 cg2d: Sum(rhs),rhsMax =  -8.62140392457240E+01  1.79557976282067E+00
(PID.TID 0000.0001)  ploadbar=  1.01194209196686E+05
 cg2d: Sum(rhs),rhsMax =  -8.68087071227280E+01  1.78304135752189E+00
(PID.TID 0000.0001)  ploadbar=  1.01194845076427E+05
 cg2d: Sum(rhs),rhsMax =  -8.73802453134406E+01  1.77112612254305E+00
(PID.TID 0000.0001)  ploadbar=  1.01195480956168E+05
 cg2d: Sum(rhs),rhsMax =  -8.79258450671662E+01  1.75993303804092E+00
(PID.TID 0000.0001)  ploadbar=  1.01196952637147E+05
 cg2d: Sum(rhs),rhsMax =  -8.84136695957516E+01  1.75006675194554E+00
(PID.TID 0000.0001)  ploadbar=  1.01198424318126E+05
 cg2d: Sum(rhs),rhsMax =  -8.88473896497182E+01  1.74141009386867E+00
(PID.TID 0000.0001)  ploadbar=  1.01199895999105E+05
 cg2d: Sum(rhs),rhsMax =  -8.92347686425578E+01  1.73377516060095E+00
(PID.TID 0000.0001)  ploadbar=  1.01201367680084E+05
 cg2d: Sum(rhs),rhsMax =  -8.95934579270506E+01  1.72679393519639E+00
(PID.TID 0000.0001)  ploadbar=  1.01202839361063E+05
 cg2d: Sum(rhs),rhsMax =  -8.90256028843111E+01  1.73779895724709E+00
(PID.TID 0000.0001)  ploadbar=  1.01204311042042E+05
 cg2d: Sum(rhs),rhsMax =  -8.86661921781359E+01  1.74482737276888E+00
(PID.TID 0000.0001)  ploadbar=  1.01204238641180E+05
 cg2d: Sum(rhs),rhsMax =  -8.85403558267998E+01  1.74728359714146E+00
(PID.TID 0000.0001)  ploadbar=  1.01204166240319E+05
 cg2d: Sum(rhs),rhsMax =  -8.85596756509891E+01  1.74686751150180E+00
(PID.TID 0000.0001)  ploadbar=  1.01204093839457E+05
 cg2d: Sum(rhs),rhsMax =  -8.86488777097894E+01  1.74506050563951E+00
(PID.TID 0000.0001)  ploadbar=  1.01204021438595E+05
 cg2d: Sum(rhs),rhsMax =  -8.87538992401621E+01  1.74292843408264E+00
(PID.TID 0000.0001)  ploadbar=  1.01203949037734E+05
 cg2d: Sum(rhs),rhsMax =  -8.88471972910490E+01  1.74100895734335E+00
(PID.TID 0000.0001)  ploadbar=  1.01203876636872E+05
 cg2d: Sum(rhs),rhsMax =  -8.89056640793428E+01  1.73978349491844E+00
(PID.TID 0000.0001)  ploadbar=  1.01204406680635E+05
 cg2d: Sum(rhs),rhsMax =  -8.89561057492789E+01  1.73872369182791E+00
(PID.TID 0000.0001)  ploadbar=  1.01204936724397E+05
 cg2d: Sum(rhs),rhsMax =  -8.90450769393388E+01  1.73691763815486E+00
(PID.TID 0000.0001)  ploadbar=  1.01205466768160E+05
 cg2d: Sum(rhs),rhsMax =  -8.92064350507047E+01  1.73371049914485E+00
(PID.TID 0000.0001)  ploadbar=  1.01205996811922E+05
 cg2d: Sum(rhs),rhsMax =  -8.94634879025902E+01  1.72866269956038E+00
(PID.TID 0000.0001)  ploadbar=  1.01206526855685E+05
 cg2d: Sum(rhs),rhsMax =  -8.98180792554398E+01  1.72176546094974E+00
(PID.TID 0000.0001)  ploadbar=  1.01207056899447E+05
 cg2d: Sum(rhs),rhsMax =  -9.01122475467790E+01  1.71603642008838E+00
(PID.TID 0000.0001)  ploadbar=  1.01206941238241E+05
 cg2d: Sum(rhs),rhsMax =  -8.99270975984509E+01  1.71942300476895E+00
(PID.TID 0000.0001)  ploadbar=  1.01206825577034E+05
 cg2d: Sum(rhs),rhsMax =  -9.00499170174296E+01  1.71689182195967E+00
(PID.TID 0000.0001)  ploadbar=  1.01206709915828E+05
 cg2d: Sum(rhs),rhsMax =  -9.05292791967461E+01  1.70757642564725E+00
(PID.TID 0000.0001)  ploadbar=  1.01206594254621E+05
 cg2d: Sum(rhs),rhsMax =  -9.13086856303973E+01  1.69273915636722E+00
(PID.TID 0000.0001)  ploadbar=  1.01206478593415E+05
 cg2d: Sum(rhs),rhsMax =  -9.22848691163447E+01  1.67453369771983E+00
(PID.TID 0000.0001)  ploadbar=  1.01206362932209E+05
 cg2d: Sum(rhs),rhsMax =  -9.33068172504292E+01  1.65596101798491E+00
(PID.TID 0000.0001)  ploadbar=  1.01206233291942E+05
 cg2d: Sum(rhs),rhsMax =  -9.43448056279822E+01  1.63757306188368E+00
(PID.TID 0000.0001)  ploadbar=  1.01206103651676E+05
 cg2d: Sum(rhs),rhsMax =  -9.53342279133914E+01  1.62046541870492E+00
(PID.TID 0000.0001)  ploadbar=  1.01205974011410E+05
 cg2d: Sum(rhs),rhsMax =  -9.57357446031425E+01  1.61361060464575E+00
(PID.TID 0000.0001)  ploadbar=  1.01205844371143E+05
 cg2d: Sum(rhs),rhsMax =  -9.60253504991683E+01  1.60873345958897E+00
(PID.TID 0000.0001)  ploadbar=  1.01205714730877E+05
 cg2d: Sum(rhs),rhsMax =  -9.62162673556150E+01  1.60557403492695E+00
(PID.TID 0000.0001)  ploadbar=  1.01205585090611E+05
 cg2d: Sum(rhs),rhsMax =  -9.62990496170580E+01  1.60420836771581E+00
(PID.TID 0000.0001)  ploadbar=  1.01205013698394E+05
 cg2d: Sum(rhs),rhsMax =  -9.62871568696068E+01  1.60440105753666E+00
(PID.TID 0000.0001)  ploadbar=  1.01204442306178E+05
 cg2d: Sum(rhs),rhsMax =  -9.62093200204492E+01  1.60567104288184E+00
(PID.TID 0000.0001)  ploadbar=  1.01203870913961E+05
 cg2d: Sum(rhs),rhsMax =  -9.61034107192304E+01  1.60738969420200E+00
(PID.TID 0000.0001)  ploadbar=  1.01203299521745E+05
 cg2d: Sum(rhs),rhsMax =  -9.60071143861048E+01  1.60892557588959E+00
(PID.TID 0000.0001)  ploadbar=  1.01202728129529E+05
 cg2d: Sum(rhs),rhsMax =  -9.59619974882176E+01  1.60957556232004E+00
(PID.TID 0000.0001)  ploadbar=  1.01202156737312E+05
 cg2d: Sum(rhs),rhsMax =  -9.59819460239536E+01  1.60913736941761E+00
(PID.TID 0000.0001)  ploadbar=  1.01200652132872E+05
 cg2d: Sum(rhs),rhsMax =  -9.60639101566745E+01  1.60766029918073E+00
(PID.TID 0000.0001)  ploadbar=  1.01199147528431E+05
 cg2d: Sum(rhs),rhsMax =  -9.62098883414815E+01  1.60511331130625E+00
(PID.TID 0000.0001)  ploadbar=  1.01197642923991E+05
 cg2d: Sum(rhs),rhsMax =  -9.64209385079648E+01  1.60148443093500E+00
(PID.TID 0000.0001)  ploadbar=  1.01196138319550E+05
 cg2d: Sum(rhs),rhsMax =  -9.66975997268542E+01  1.59677677756469E+00
(PID.TID 0000.0001)  ploadbar=  1.01194633715109E+05
 cg2d: Sum(rhs),rhsMax =  -9.70311220349286E+01  1.59114682895674E+00
(PID.TID 0000.0001)  ploadbar=  1.01193129110669E+05
 cg2d: Sum(rhs),rhsMax =  -9.73985200604548E+01  1.58500991147587E+00
(PID.TID 0000.0001)  ploadbar=  1.01191482327677E+05
 cg2d: Sum(rhs),rhsMax =  -9.75648917368501E+01  1.58217561029389E+00
(PID.TID 0000.0001)  ploadbar=  1.01189835544685E+05
 cg2d: Sum(rhs),rhsMax =  -9.74632231567178E+01  1.58369873284827E+00
(PID.TID 0000.0001)  ploadbar=  1.01188188761693E+05
 cg2d: Sum(rhs),rhsMax =  -9.75162026729769E+01  1.58271571195649E+00
(PID.TID 0000.0001)  ploadbar=  1.01186541978701E+05
 cg2d: Sum(rhs),rhsMax =  -9.76540439935669E+01  1.58036374462874E+00
(PID.TID 0000.0001)  ploadbar=  1.01184895195710E+05
 cg2d: Sum(rhs),rhsMax =  -9.78112677839097E+01  1.57770865780598E+00
(PID.TID 0000.0001)  ploadbar=  1.01183248412718E+05
 cg2d: Sum(rhs),rhsMax =  -9.78198412921463E+01  1.57750629422085E+00
(PID.TID 0000.0001)  ploadbar=  1.01182072498622E+05
 cg2d: Sum(rhs),rhsMax =  -9.61405217227649E+01  1.60504526238887E+00
(PID.TID 0000.0001)  ploadbar=  1.01180896584526E+05
 cg2d: Sum(rhs),rhsMax =  -9.44246695530966E+01  1.63424503003314E+00
(PID.TID 0000.0001)  ploadbar=  1.01179720670430E+05
 cg2d: Sum(rhs),rhsMax =  -9.27417652093768E+01  1.66398132000022E+00
(PID.TID 0000.0001)  ploadbar=  1.01178544756335E+05
 cg2d: Sum(rhs),rhsMax =  -9.11657459912946E+01  1.69287347024741E+00
(PID.TID 0000.0001)  ploadbar=  1.01177368842239E+05
 cg2d: Sum(rhs),rhsMax =  -8.97506619899124E+01  1.71973372344035E+00
(PID.TID 0000.0001)  ploadbar=  1.01176192928143E+05
 cg2d: Sum(rhs),rhsMax =  -8.85271199948221E+01  1.74368518187129E+00
(PID.TID 0000.0001)  ploadbar=  1.01175351630069E+05
 cg2d: Sum(rhs),rhsMax =  -8.75110228885100E+01  1.76412588620249E+00
(PID.TID 0000.0001)  ploadbar=  1.01174510331994E+05
 cg2d: Sum(rhs),rhsMax =  -8.66431350146122E+01  1.78200105367736E+00
(PID.TID 0000.0001)  ploadbar=  1.01173669033920E+05
 cg2d: Sum(rhs),rhsMax =  -8.58622609560280E+01  1.79842082999946E+00
(PID.TID 0000.0001)  ploadbar=  1.01172827735845E+05
 cg2d: Sum(rhs),rhsMax =  -8.51229486838503E+01  1.81426248161323E+00
(PID.TID 0000.0001)  ploadbar=  1.01171986437771E+05
 cg2d: Sum(rhs),rhsMax =  -8.43792136997019E+01  1.83048283244838E+00
(PID.TID 0000.0001)  ploadbar=  1.01171145139696E+05
 cg2d: Sum(rhs),rhsMax =  -8.36380871751509E+01  1.84692503572560E+00
(PID.TID 0000.0001)  ploadbar=  1.01169549095544E+05
 cg2d: Sum(rhs),rhsMax =  -8.29300189230411E+01  1.86290785443835E+00
(PID.TID 0000.0001)  ploadbar=  1.01167953051392E+05
 cg2d: Sum(rhs),rhsMax =  -8.22574686334519E+01  1.87834197429248E+00
(PID.TID 0000.0001)  ploadbar=  1.01166357007240E+05
 cg2d: Sum(rhs),rhsMax =  -8.16275661435497E+01  1.89302493101667E+00
(PID.TID 0000.0001)  ploadbar=  1.01164760963088E+05
 cg2d: Sum(rhs),rhsMax =  -8.10503880808819E+01  1.90667593838568E+00
(PID.TID 0000.0001)  ploadbar=  1.01163164918936E+05
 cg2d: Sum(rhs),rhsMax =  -8.05392410817562E+01  1.91892537952840E+00
(PID.TID 0000.0001)  ploadbar=  1.01161568874784E+05
 cg2d: Sum(rhs),rhsMax =  -8.01010902084474E+01  1.92955883013948E+00
(PID.TID 0000.0001)  ploadbar=  1.01161575649684E+05
 cg2d: Sum(rhs),rhsMax =  -7.97325853339904E+01  1.93860188320570E+00
(PID.TID 0000.0001)  ploadbar=  1.01161582424583E+05
 cg2d: Sum(rhs),rhsMax =  -7.94152155637276E+01  1.94645985870683E+00
(PID.TID 0000.0001)  ploadbar=  1.01161589199483E+05
 cg2d: Sum(rhs),rhsMax =  -7.91322828184002E+01  1.95351483967975E+00
(PID.TID 0000.0001)  ploadbar=  1.01161595974384E+05
 cg2d: Sum(rhs),rhsMax =  -7.88655114776839E+01  1.96020088999328E+00
(PID.TID 0000.0001)  ploadbar=  1.01161602749283E+05
 cg2d: Sum(rhs),rhsMax =  -7.86022460480033E+01  1.96682178931621E+00
(PID.TID 0000.0001)  ploadbar=  1.01161609524183E+05
 cg2d: Sum(rhs),rhsMax =  -7.82652372190072E+01  1.97538849001393E+00
(PID.TID 0000.0001)  ploadbar=  1.01163097249859E+05
 cg2d: Sum(rhs),rhsMax =  -7.78737374533006E+01  1.98545870181237E+00
(PID.TID 0000.0001)  ploadbar=  1.01164584975535E+05
 cg2d: Sum(rhs),rhsMax =  -7.74359003457262E+01  1.99686563098978E+00
(PID.TID 0000.0001)  ploadbar=  1.01166072701212E+05
 cg2d: Sum(rhs),rhsMax =  -7.69694103545921E+01  2.00918553095049E+00
(PID.TID 0000.0001)  ploadbar=  1.01167560426888E+05
 cg2d: Sum(rhs),rhsMax =  -7.65073840889727E+01  2.02157041861283E+00
(PID.TID 0000.0001)  ploadbar=  1.01169048152564E+05
 cg2d: Sum(rhs),rhsMax =  -7.60735294993201E+01  2.03338163044767E+00
(PID.TID 0000.0001)  ploadbar=  1.01170535878240E+05
 cg2d: Sum(rhs),rhsMax =  -7.56869827081644E+01  2.04403355539889E+00
(PID.TID 0000.0001)  ploadbar=  1.01169720993552E+05
 cg2d: Sum(rhs),rhsMax =  -7.53064363322361E+01  2.05461424702733E+00
(PID.TID 0000.0001)  ploadbar=  1.01168906108865E+05
 cg2d: Sum(rhs),rhsMax =  -7.49343628596937E+01  2.06504769678965E+00
(PID.TID 0000.0001)  ploadbar=  1.01168091224178E+05
 cg2d: Sum(rhs),rhsMax =  -7.45689829864608E+01  2.07537566352701E+00
(PID.TID 0000.0001)  ploadbar=  1.01167276339491E+05
 cg2d: Sum(rhs),rhsMax =  -7.42044809922309E+01  2.08575597781802E+00
(PID.TID 0000.0001)  ploadbar=  1.01166461454803E+05
 cg2d: Sum(rhs),rhsMax =  -7.38287752554068E+01  2.09652962040033E+00
(PID.TID 0000.0001)  ploadbar=  1.01165646570116E+05
 cg2d: Sum(rhs),rhsMax =  -7.34446121365494E+01  2.10764369247322E+00
(PID.TID 0000.0001)  ploadbar=  1.01164563160885E+05
 cg2d: Sum(rhs),rhsMax =  -7.30340821160215E+01  2.11962338771509E+00
(PID.TID 0000.0001)  ploadbar=  1.01163479751654E+05
 cg2d: Sum(rhs),rhsMax =  -7.25829359022032E+01  2.13291084055083E+00
(PID.TID 0000.0001)  ploadbar=  1.01162396342422E+05
 cg2d: Sum(rhs),rhsMax =  -7.20977258676868E+01  2.14735247595587E+00
(PID.TID 0000.0001)  ploadbar=  1.01161312933191E+05
 cg2d: Sum(rhs),rhsMax =  -7.15993496369463E+01  2.16235298090068E+00
(PID.TID 0000.0001)  ploadbar=  1.01160229523960E+05
 cg2d: Sum(rhs),rhsMax =  -7.11146002523022E+01  2.17710788175981E+00
(PID.TID 0000.0001)  ploadbar=  1.01159146114729E+05
 cg2d: Sum(rhs),rhsMax =  -7.06237791108414E+01  2.19226306382961E+00
(PID.TID 0000.0001)  ploadbar=  1.01159041163316E+05
 cg2d: Sum(rhs),rhsMax =  -7.01584389098174E+01  2.20683513805683E+00
(PID.TID 0000.0001)  ploadbar=  1.01158936211902E+05
 cg2d: Sum(rhs),rhsMax =  -6.97118439516033E+01  2.22100539065621E+00
(PID.TID 0000.0001)  ploadbar=  1.01158831260489E+05
 cg2d: Sum(rhs),rhsMax =  -6.92808215822013E+01  2.23485182992887E+00
(PID.TID 0000.0001)  ploadbar=  1.01158726309076E+05
 cg2d: Sum(rhs),rhsMax =  -6.88687616734650E+01  2.24824220108418E+00
(PID.TID 0000.0001)  ploadbar=  1.01158621357663E+05
 cg2d: Sum(rhs),rhsMax =  -6.84874970117540E+01  2.26076227495288E+00
(PID.TID 0000.0001)  ploadbar=  1.01158516406249E+05
 cg2d: Sum(rhs),rhsMax =  -6.82623677475629E+01  2.26829477574533E+00
(PID.TID 0000.0001)  ploadbar=  1.01158855513615E+05
 cg2d: Sum(rhs),rhsMax =  -6.81704147719927E+01  2.27149897598296E+00
(PID.TID 0000.0001)  ploadbar=  1.01159194620980E+05
 cg2d: Sum(rhs),rhsMax =  -6.82003154136295E+01  2.27070996577801E+00
(PID.TID 0000.0001)  ploadbar=  1.01159533728346E+05
 cg2d: Sum(rhs),rhsMax =  -6.83250268235784E+01  2.26682809152675E+00
(PID.TID 0000.0001)  ploadbar=  1.01159872835712E+05
 cg2d: Sum(rhs),rhsMax =  -6.85186635539488E+01  2.26073118337310E+00
(PID.TID 0000.0001)  ploadbar=  1.01160211943077E+05
 cg2d: Sum(rhs),rhsMax =  -6.87578598153458E+01  2.25321493824236E+00
(PID.TID 0000.0001)  ploadbar=  1.01160551050443E+05
 cg2d: Sum(rhs),rhsMax =  -6.88867747987006E+01  2.24933572062211E+00
(PID.TID 0000.0001)  ploadbar=  1.01160401096401E+05
 cg2d: Sum(rhs),rhsMax =  -6.89642883160951E+01  2.24712850157539E+00
(PID.TID 0000.0001)  ploadbar=  1.01160251142360E+05
 cg2d: Sum(rhs),rhsMax =  -6.89857241835566E+01  2.24673392691598E+00
(PID.TID 0000.0001)  ploadbar=  1.01160101188318E+05
 cg2d: Sum(rhs),rhsMax =  -6.89619362198566E+01  2.24779376377115E+00
(PID.TID 0000.0001)  ploadbar=  1.01159951234277E+05
 cg2d: Sum(rhs),rhsMax =  -6.89194142844033E+01  2.24944576268333E+00
(PID.TID 0000.0001)  ploadbar=  1.01159801280235E+05
 cg2d: Sum(rhs),rhsMax =  -6.88864192485169E+01  2.25076244140742E+00
(PID.TID 0000.0001)  ploadbar=  1.01159651326194E+05
 cg2d: Sum(rhs),rhsMax =  -6.88813558137584E+01  2.25116230186326E+00
(PID.TID 0000.0001)  ploadbar=  1.01157930106130E+05
 cg2d: Sum(rhs),rhsMax =  -6.88587007195643E+01  2.25212789167859E+00
(PID.TID 0000.0001)  ploadbar=  1.01156208886067E+05
 cg2d: Sum(rhs),rhsMax =  -6.88399427697977E+01  2.25295195741024E+00
(PID.TID 0000.0001)  ploadbar=  1.01154487666004E+05
 cg2d: Sum(rhs),rhsMax =  -6.88878077965216E+01  2.25157873135812E+00
(PID.TID 0000.0001)  ploadbar=  1.01152766445940E+05
 cg2d: Sum(rhs),rhsMax =  -6.90236450637982E+01  2.24731847908507E+00
(PID.TID 0000.0001)  ploadbar=  1.01151045225877E+05
 cg2d: Sum(rhs),rhsMax =  -6.92794331996028E+01  2.23916480953473E+00
(PID.TID 0000.0001)  ploadbar=  1.01149324005813E+05
 cg2d: Sum(rhs),rhsMax =  -6.97187292186459E+01  2.22519975604843E+00
(PID.TID 0000.0001)  ploadbar=  1.01147875815637E+05
 cg2d: Sum(rhs),rhsMax =  -7.02834224592932E+01  2.20746113563436E+00
(PID.TID 0000.0001)  ploadbar=  1.01146427625460E+05
 cg2d: Sum(rhs),rhsMax =  -7.09271048419681E+01  2.18756178575030E+00
(PID.TID 0000.0001)  ploadbar=  1.01144979435283E+05
 cg2d: Sum(rhs),rhsMax =  -7.16060762885783E+01  2.16694252653860E+00
(PID.TID 0000.0001)  ploadbar=  1.01143531245107E+05
 cg2d: Sum(rhs),rhsMax =  -7.22902829766212E+01  2.14654168697546E+00
(PID.TID 0000.0001)  ploadbar=  1.01142083054930E+05
 cg2d: Sum(rhs),rhsMax =  -7.29931427662334E+01  2.12596256369288E+00
(PID.TID 0000.0001)  ploadbar=  1.01140634864754E+05
 cg2d: Sum(rhs),rhsMax =  -7.37258209049933E+01  2.10496340968826E+00
(PID.TID 0000.0001)  ploadbar=  1.01139900387208E+05
 cg2d: Sum(rhs),rhsMax =  -7.45366497749876E+01  2.08222460114962E+00
(PID.TID 0000.0001)  ploadbar=  1.01139165909663E+05
 cg2d: Sum(rhs),rhsMax =  -7.54474443979687E+01  2.05727474380579E+00
(PID.TID 0000.0001)  ploadbar=  1.01138431432118E+05
 cg2d: Sum(rhs),rhsMax =  -7.64848446358510E+01  2.02957937657109E+00
(PID.TID 0000.0001)  ploadbar=  1.01137696954573E+05
 cg2d: Sum(rhs),rhsMax =  -7.76515144840828E+01  1.99931168070316E+00
(PID.TID 0000.0001)  ploadbar=  1.01136962477028E+05
 cg2d: Sum(rhs),rhsMax =  -7.89334502597183E+01  1.96707639942288E+00
(PID.TID 0000.0001)  ploadbar=  1.01136227999483E+05
 cg2d: Sum(rhs),rhsMax =  -8.03017299627135E+01  1.93379303651107E+00
(PID.TID 0000.0001)  ploadbar=  1.01136213456646E+05
 cg2d: Sum(rhs),rhsMax =  -8.16975488500552E+01  1.90098313409235E+00
(PID.TID 0000.0001)  ploadbar=  1.01136198913809E+05
 cg2d: Sum(rhs),rhsMax =  -8.30673609529510E+01  1.86985481451635E+00
(PID.TID 0000.0001)  ploadbar=  1.01136184370972E+05
 cg2d: Sum(rhs),rhsMax =  -8.44098829149975E+01  1.84032061846094E+00
(PID.TID 0000.0001)  ploadbar=  1.01136169828136E+05
 cg2d: Sum(rhs),rhsMax =  -8.56904315594866E+01  1.81300704013152E+00
(PID.TID 0000.0001)  ploadbar=  1.01136155285299E+05
 cg2d: Sum(rhs),rhsMax =  -8.69649693601315E+01  1.78660702765372E+00
(PID.TID 0000.0001)  ploadbar=  1.01136140742462E+05
 cg2d: Sum(rhs),rhsMax =  -8.81774957302759E+01  1.76219098986409E+00
(PID.TID 0000.0001)  ploadbar=  1.01133373279269E+05
 cg2d: Sum(rhs),rhsMax =  -8.93966280962397E+01  1.73828279278171E+00
(PID.TID 0000.0001)  ploadbar=  1.01130605816076E+05
 cg2d: Sum(rhs),rhsMax =  -9.05972679070303E+01  1.71533678469711E+00
(PID.TID 0000.0001)  ploadbar=  1.01127838352883E+05
 cg2d: Sum(rhs),rhsMax =  -9.17528091562501E+01  1.69378742665176E+00
(PID.TID 0000.0001)  ploadbar=  1.01125070889690E+05
 cg2d: Sum(rhs),rhsMax =  -9.28269112659423E+01  1.67420066639322E+00
(PID.TID 0000.0001)  ploadbar=  1.01122303426497E+05
 cg2d: Sum(rhs),rhsMax =  -9.37870365025238E+01  1.65702905788223E+00
(PID.TID 0000.0001)  ploadbar=  1.01119535963304E+05
 cg2d: Sum(rhs),rhsMax =  -9.46518665537447E+01  1.64184761104497E+00
(PID.TID 0000.0001)  ploadbar=  1.01119047836168E+05
 cg2d: Sum(rhs),rhsMax =  -9.54622369734927E+01  1.62785859365825E+00
(PID.TID 0000.0001)  ploadbar=  1.01118559709032E+05
 cg2d: Sum(rhs),rhsMax =  -9.62885457026162E+01  1.61382298267274E+00
(PID.TID 0000.0001)  ploadbar=  1.01118071581896E+05
 cg2d: Sum(rhs),rhsMax =  -9.72008510157231E+01  1.59858741119613E+00
(PID.TID 0000.0001)  ploadbar=  1.01117583454761E+05
 cg2d: Sum(rhs),rhsMax =  -9.82830553153190E+01  1.58086642069511E+00
(PID.TID 0000.0001)  ploadbar=  1.01117095327625E+05
 cg2d: Sum(rhs),rhsMax =  -9.96094703733284E+01  1.55966417172814E+00
(PID.TID 0000.0001)  ploadbar=  1.01116607200489E+05
 cg2d: Sum(rhs),rhsMax =  -1.01219625084405E+02  1.53472532687680E+00
(PID.TID 0000.0001)  ploadbar=  1.01116563310833E+05
 cg2d: Sum(rhs),rhsMax =  -1.02955306086452E+02  1.50874463082720E+00
(PID.TID 0000.0001)  ploadbar=  1.01116519421178E+05
 cg2d: Sum(rhs),rhsMax =  -1.02277024993161E+02  1.51865832455167E+00
(PID.TID 0000.0001)  ploadbar=  1.01116475531522E+05
 cg2d: Sum(rhs),rhsMax =  -1.01241729799046E+02  1.53410812843344E+00
(PID.TID 0000.0001)  ploadbar=  1.01116431641866E+05
 cg2d: Sum(rhs),rhsMax =  -1.00171862605913E+02  1.55041989874731E+00
(PID.TID 0000.0001)  ploadbar=  1.01116387752210E+05
 cg2d: Sum(rhs),rhsMax =  -9.90350398781354E+01  1.56814669308300E+00
(PID.TID 0000.0001)  ploadbar=  1.01116343862555E+05
 cg2d: Sum(rhs),rhsMax =  -9.79993476169482E+01  1.58466030781362E+00
(PID.TID 0000.0001)  ploadbar=  1.01115528977040E+05
 cg2d: Sum(rhs),rhsMax =  -9.72392760132340E+01  1.59699675911505E+00
(PID.TID 0000.0001)  ploadbar=  1.01114714091525E+05
 cg2d: Sum(rhs),rhsMax =  -9.67237754537917E+01  1.60546338707448E+00
(PID.TID 0000.0001)  ploadbar=  1.01113899206010E+05
 cg2d: Sum(rhs),rhsMax =  -9.63770303705062E+01  1.61119639949717E+00
(PID.TID 0000.0001)  ploadbar=  1.01113084320495E+05
 cg2d: Sum(rhs),rhsMax =  -9.61158400889864E+01  1.61552844078264E+00
(PID.TID 0000.0001)  ploadbar=  1.01112269434980E+05
 cg2d: Sum(rhs),rhsMax =  -9.58798290572184E+01  1.61945290022664E+00
(PID.TID 0000.0001)  ploadbar=  1.01111454549465E+05
 cg2d: Sum(rhs),rhsMax =  -9.56245054622700E+01  1.62372552873361E+00
(PID.TID 0000.0001)  ploadbar=  1.01109355735158E+05
 cg2d: Sum(rhs),rhsMax =  -9.54123582295546E+01  1.62728288050765E+00
(PID.TID 0000.0001)  ploadbar=  1.01107256920851E+05
 cg2d: Sum(rhs),rhsMax =  -9.53295243019940E+01  1.62864065555494E+00
(PID.TID 0000.0001)  ploadbar=  1.01105158106545E+05
 cg2d: Sum(rhs),rhsMax =  -9.54499303716933E+01  1.62652084234959E+00
(PID.TID 0000.0001)  ploadbar=  1.01103059292238E+05
 cg2d: Sum(rhs),rhsMax =  -9.57760356846400E+01  1.62090277519677E+00
(PID.TID 0000.0001)  ploadbar=  1.01100960477932E+05
 cg2d: Sum(rhs),rhsMax =  -9.62647738376805E+01  1.61257354641172E+00
(PID.TID 0000.0001)  ploadbar=  1.01098861663625E+05
 cg2d: Sum(rhs),rhsMax =  -9.67988352756701E+01  1.60355994927095E+00
(PID.TID 0000.0001)  ploadbar=  1.01097105164350E+05
 cg2d: Sum(rhs),rhsMax =  -9.73370027226465E+01  1.59455823565798E+00
(PID.TID 0000.0001)  ploadbar=  1.01095348665074E+05
 cg2d: Sum(rhs),rhsMax =  -9.78603961993438E+01  1.58587273511775E+00
(PID.TID 0000.0001)  ploadbar=  1.01093592165798E+05
 cg2d: Sum(rhs),rhsMax =  -9.83931485754540E+01  1.57710745095897E+00
(PID.TID 0000.0001)  ploadbar=  1.01091835666523E+05
 cg2d: Sum(rhs),rhsMax =  -9.89753445516736E+01  1.56762713791766E+00
(PID.TID 0000.0001)  ploadbar=  1.01090079167247E+05
 cg2d: Sum(rhs),rhsMax =  -9.96081955228385E+01  1.55743593770245E+00
(PID.TID 0000.0001)  ploadbar=  1.01088322667972E+05
 cg2d: Sum(rhs),rhsMax =  -1.00283368392734E+02  1.54674244947842E+00
(PID.TID 0000.0001)  ploadbar=  1.01086709248592E+05
 cg2d: Sum(rhs),rhsMax =  -1.01018677508054E+02  1.53529828955415E+00
(PID.TID 0000.0001)  ploadbar=  1.01085095829212E+05
 cg2d: Sum(rhs),rhsMax =  -1.01812133750520E+02  1.52316816414381E+00
(PID.TID 0000.0001)  ploadbar=  1.01083482409832E+05
 cg2d: Sum(rhs),rhsMax =  -1.02652551688802E+02  1.51054835832372E+00
(PID.TID 0000.0001)  ploadbar=  1.01081868990452E+05
 cg2d: Sum(rhs),rhsMax =  -1.03526176286131E+02  1.49766209178045E+00
(PID.TID 0000.0001)  ploadbar=  1.01080255571072E+05
 cg2d: Sum(rhs),rhsMax =  -1.04414854111446E+02  1.48478407358147E+00
(PID.TID 0000.0001)  ploadbar=  1.01078642151692E+05
 cg2d: Sum(rhs),rhsMax =  -1.05285652840946E+02  1.47238231969046E+00
(PID.TID 0000.0001)  ploadbar=  1.01078170061840E+05
 cg2d: Sum(rhs),rhsMax =  -1.06127200067756E+02  1.46059161532400E+00
(PID.TID 0000.0001)  ploadbar=  1.01077697971988E+05
 cg2d: Sum(rhs),rhsMax =  -1.07001873809776E+02  1.44853882163043E+00
(PID.TID 0000.0001)  ploadbar=  1.01077225882135E+05
 cg2d: Sum(rhs),rhsMax =  -1.07995625787006E+02  1.43509521515121E+00
(PID.TID 0000.0001)  ploadbar=  1.01076753792283E+05
 cg2d: Sum(rhs),rhsMax =  -1.09171650492553E+02  1.41951537256380E+00
(PID.TID 0000.0001)  ploadbar=  1.01076281702431E+05
 cg2d: Sum(rhs),rhsMax =  -1.10542804612327E+02  1.40177690503484E+00
(PID.TID 0000.0001)  ploadbar=  1.01075809612579E+05
 cg2d: Sum(rhs),rhsMax =  -1.12097733066513E+02  1.38221886621921E+00
(PID.TID 0000.0001)  ploadbar=  1.01075149106478E+05
 cg2d: Sum(rhs),rhsMax =  -1.12077838654557E+02  1.38236306022828E+00
(PID.TID 0000.0001)  ploadbar=  1.01074488600378E+05
 cg2d: Sum(rhs),rhsMax =  -1.10457978944298E+02  1.40254186877248E+00
(PID.TID 0000.0001)  ploadbar=  1.01073828094277E+05
 cg2d: Sum(rhs),rhsMax =  -1.09179123459113E+02  1.41888162702001E+00
(PID.TID 0000.0001)  ploadbar=  1.01073167588176E+05
 cg2d: Sum(rhs),rhsMax =  -1.08308198747958E+02  1.43020494466610E+00
(PID.TID 0000.0001)  ploadbar=  1.01072507082075E+05
 cg2d: Sum(rhs),rhsMax =  -1.07962028639377E+02  1.43470375803240E+00
(PID.TID 0000.0001)  ploadbar=  1.01071846575975E+05
 cg2d: Sum(rhs),rhsMax =  -1.08208404520757E+02  1.43132776438963E+00
(PID.TID 0000.0001)  ploadbar=  1.01072390244075E+05
 cg2d: Sum(rhs),rhsMax =  -1.08463709637886E+02  1.42782702211591E+00
(PID.TID 0000.0001)  ploadbar=  1.01072933912175E+05
 cg2d: Sum(rhs),rhsMax =  -1.08732006750997E+02  1.42415130217746E+00
(PID.TID 0000.0001)  ploadbar=  1.01073477580275E+05
 cg2d: Sum(rhs),rhsMax =  -1.08999281335694E+02  1.42048357397627E+00
(PID.TID 0000.0001)  ploadbar=  1.01074021248376E+05
 cg2d: Sum(rhs),rhsMax =  -1.09258775823861E+02  1.41690825782632E+00
(PID.TID 0000.0001)  ploadbar=  1.01074564916476E+05
 cg2d: Sum(rhs),rhsMax =  -1.09502963343119E+02  1.41351932114980E+00
(PID.TID 0000.0001)  ploadbar=  1.01075108584576E+05
 cg2d: Sum(rhs),rhsMax =  -1.09662443805294E+02  1.41127036966092E+00
(PID.TID 0000.0001)  ploadbar=  1.01075899665053E+05
 cg2d: Sum(rhs),rhsMax =  -1.09802737735563E+02  1.40930730227605E+00
(PID.TID 0000.0001)  ploadbar=  1.01076690745529E+05
 cg2d: Sum(rhs),rhsMax =  -1.09933618899189E+02  1.40750067148296E+00
(PID.TID 0000.0001)  ploadbar=  1.01077481826006E+05
 cg2d: Sum(rhs),rhsMax =  -1.10067394755524E+02  1.40568959686476E+00
(PID.TID 0000.0001)  ploadbar=  1.01078272906482E+05
 cg2d: Sum(rhs),rhsMax =  -1.10220091205495E+02  1.40366921760912E+00
(PID.TID 0000.0001)  ploadbar=  1.01079063986958E+05
 cg2d: Sum(rhs),rhsMax =  -1.10411137297553E+02  1.40119063775192E+00
(PID.TID 0000.0001)  ploadbar=  1.01079855067435E+05
 cg2d: Sum(rhs),rhsMax =  -1.10590367760370E+02  1.39886352951784E+00
(PID.TID 0000.0001)  ploadbar=  1.01081114073956E+05
 cg2d: Sum(rhs),rhsMax =  -1.10800907201456E+02  1.39614403551499E+00
(PID.TID 0000.0001)  ploadbar=  1.01082373080476E+05
 cg2d: Sum(rhs),rhsMax =  -1.11047892821824E+02  1.39297015096667E+00
(PID.TID 0000.0001)  ploadbar=  1.01083632086997E+05
 cg2d: Sum(rhs),rhsMax =  -1.10914005681560E+02  1.39457361869411E+00
(PID.TID 0000.0001)  ploadbar=  1.01084891093517E+05
 cg2d: Sum(rhs),rhsMax =  -1.09169464171623E+02  1.41676833967210E+00
(PID.TID 0000.0001)  ploadbar=  1.01086150100038E+05
 cg2d: Sum(rhs),rhsMax =  -1.07068676008700E+02  1.44446071366305E+00
(PID.TID 0000.0001)  ploadbar=  1.01087409106559E+05
 cg2d: Sum(rhs),rhsMax =  -1.03723171382311E+02  1.49094543487157E+00
(PID.TID 0000.0001)  ploadbar=  1.01088909182810E+05
 cg2d: Sum(rhs),rhsMax =  -1.00511452469485E+02  1.53847985877420E+00
(PID.TID 0000.0001)  ploadbar=  1.01090409259061E+05
 cg2d: Sum(rhs),rhsMax =  -9.74743702365777E+01  1.58630346145633E+00
(PID.TID 0000.0001)  ploadbar=  1.01091909335312E+05
 cg2d: Sum(rhs),rhsMax =  -9.48433403855716E+01  1.63018950821098E+00
(PID.TID 0000.0001)  ploadbar=  1.01093409411563E+05
 cg2d: Sum(rhs),rhsMax =  -9.28123868732509E+01  1.66573119409765E+00
(PID.TID 0000.0001)  ploadbar=  1.01094909487814E+05
 cg2d: Sum(rhs),rhsMax =  -9.14002043865055E+01  1.69132253770318E+00
(PID.TID 0000.0001)  ploadbar=  1.01096409564065E+05
 cg2d: Sum(rhs),rhsMax =  -9.06504525822903E+01  1.70516678955286E+00
(PID.TID 0000.0001)  ploadbar=  1.01096510419475E+05
 cg2d: Sum(rhs),rhsMax =  -9.05357040807272E+01  1.70718324870119E+00
(PID.TID 0000.0001)  ploadbar=  1.01096611274885E+05
 cg2d: Sum(rhs),rhsMax =  -9.07057513082834E+01  1.70383406514254E+00
(PID.TID 0000.0001)  ploadbar=  1.01096712130295E+05
 cg2d: Sum(rhs),rhsMax =  -9.08912323498502E+01  1.70020237224352E+00
(PID.TID 0000.0001)  ploadbar=  1.01096812985705E+05
 cg2d: Sum(rhs),rhsMax =  -9.12589652007437E+01  1.69318771565029E+00
(PID.TID 0000.0001)  ploadbar=  1.01096913841115E+05
 cg2d: Sum(rhs),rhsMax =  -9.16674188277221E+01  1.68546871387594E+00
(PID.TID 0000.0001)  ploadbar=  1.01097014696525E+05
 cg2d: Sum(rhs),rhsMax =  -9.20384219651114E+01  1.67853936263705E+00
(PID.TID 0000.0001)  ploadbar=  1.01096653501868E+05
 cg2d: Sum(rhs),rhsMax =  -9.23336330558859E+01  1.67307487183458E+00
(PID.TID 0000.0001)  ploadbar=  1.01096292307212E+05
 cg2d: Sum(rhs),rhsMax =  -9.25623413812911E+01  1.66887520640781E+00
(PID.TID 0000.0001)  ploadbar=  1.01095931112556E+05
 cg2d: Sum(rhs),rhsMax =  -9.28286864128399E+01  1.66405058236748E+00
(PID.TID 0000.0001)  ploadbar=  1.01095569917900E+05
 cg2d: Sum(rhs),rhsMax =  -9.31956056824552E+01  1.65748906960120E+00
(PID.TID 0000.0001)  ploadbar=  1.01095208723243E+05
 cg2d: Sum(rhs),rhsMax =  -9.36910256202607E+01  1.64873494042621E+00
(PID.TID 0000.0001)  ploadbar=  1.01094847528587E+05
 cg2d: Sum(rhs),rhsMax =  -9.42164261979238E+01  1.63956194937434E+00
(PID.TID 0000.0001)  ploadbar=  1.01095354837519E+05
 cg2d: Sum(rhs),rhsMax =  -9.47290465551456E+01  1.63071928331854E+00
(PID.TID 0000.0001)  ploadbar=  1.01095862146451E+05
 cg2d: Sum(rhs),rhsMax =  -9.51946936378049E+01  1.62277820866469E+00
(PID.TID 0000.0001)  ploadbar=  1.01096369455383E+05
 cg2d: Sum(rhs),rhsMax =  -9.55692226402410E+01  1.61645874473395E+00
(PID.TID 0000.0001)  ploadbar=  1.01096876764316E+05
 cg2d: Sum(rhs),rhsMax =  -9.57985014876894E+01  1.61263091136235E+00
(PID.TID 0000.0001)  ploadbar=  1.01097384073248E+05
 cg2d: Sum(rhs),rhsMax =  -9.58205802275625E+01  1.61229753648305E+00
(PID.TID 0000.0001)  ploadbar=  1.01097891382180E+05
 cg2d: Sum(rhs),rhsMax =  -9.56572395556602E+01  1.61508839936002E+00
(PID.TID 0000.0001)  ploadbar=  1.01098282041831E+05
 cg2d: Sum(rhs),rhsMax =  -9.53315425663650E+01  1.62063889933223E+00
(PID.TID 0000.0001)  ploadbar=  1.01098672701481E+05
 cg2d: Sum(rhs),rhsMax =  -9.49067926530454E+01  1.62791581599575E+00
(PID.TID 0000.0001)  ploadbar=  1.01099063361132E+05
 cg2d: Sum(rhs),rhsMax =  -9.44703387130999E+01  1.63544888085667E+00
(PID.TID 0000.0001)  ploadbar=  1.01099454020782E+05
 cg2d: Sum(rhs),rhsMax =  -9.40941117547915E+01  1.64198454384679E+00
(PID.TID 0000.0001)  ploadbar=  1.01099844680433E+05
 cg2d: Sum(rhs),rhsMax =  -9.38044208171587E+01  1.64703130666024E+00
(PID.TID 0000.0001)  ploadbar=  1.01100235340084E+05
 cg2d: Sum(rhs),rhsMax =  -9.36372312242097E+01  1.64994725488666E+00
(PID.TID 0000.0001)  ploadbar=  1.01100460565464E+05
 cg2d: Sum(rhs),rhsMax =  -9.35394640377660E+01  1.65164550581262E+00
(PID.TID 0000.0001)  ploadbar=  1.01100685790844E+05
 cg2d: Sum(rhs),rhsMax =  -9.34597646638306E+01  1.65302359777409E+00
(PID.TID 0000.0001)  ploadbar=  1.01100911016225E+05
 cg2d: Sum(rhs),rhsMax =  -9.33513148923196E+01  1.65490643711420E+00
(PID.TID 0000.0001)  ploadbar=  1.01101136241605E+05
 cg2d: Sum(rhs),rhsMax =  -9.30587741373962E+01  1.66006086820874E+00
(PID.TID 0000.0001)  ploadbar=  1.01101361466985E+05
 cg2d: Sum(rhs),rhsMax =  -9.26691991022567E+01  1.66697829259754E+00
(PID.TID 0000.0001)  ploadbar=  1.01101586692365E+05
 cg2d: Sum(rhs),rhsMax =  -9.22698101150739E+01  1.67417511745543E+00
(PID.TID 0000.0001)  ploadbar=  1.01101489157571E+05
 cg2d: Sum(rhs),rhsMax =  -9.18827172398407E+01  1.68125052755977E+00
(PID.TID 0000.0001)  ploadbar=  1.01101391622776E+05
 cg2d: Sum(rhs),rhsMax =  -9.14915857494500E+01  1.68849883274251E+00
(PID.TID 0000.0001)  ploadbar=  1.01101294087982E+05
 cg2d: Sum(rhs),rhsMax =  -9.11250752539267E+01  1.69538776733848E+00
(PID.TID 0000.0001)  ploadbar=  1.01101196553187E+05
 cg2d: Sum(rhs),rhsMax =  -9.08744699753334E+01  1.70019459489688E+00
(PID.TID 0000.0001)  ploadbar=  1.01101099018392E+05
 cg2d: Sum(rhs),rhsMax =  -9.07894349234153E+01  1.70194968645151E+00
(PID.TID 0000.0001)  ploadbar=  1.01101001483597E+05
 cg2d: Sum(rhs),rhsMax =  -9.08237126014511E+01  1.70146995247366E+00
(PID.TID 0000.0001)  ploadbar=  1.01100909485033E+05
 cg2d: Sum(rhs),rhsMax =  -9.08059102611873E+01  1.70196265128737E+00
(PID.TID 0000.0001)  ploadbar=  1.01100817486468E+05
 cg2d: Sum(rhs),rhsMax =  -9.08046853577811E+01  1.70213809615869E+00
(PID.TID 0000.0001)  ploadbar=  1.01100725487904E+05
 cg2d: Sum(rhs),rhsMax =  -9.08000197100590E+01  1.70237062081934E+00
(PID.TID 0000.0001)  ploadbar=  1.01100633489339E+05
 cg2d: Sum(rhs),rhsMax =  -9.07458351356860E+01  1.70352034834776E+00
(PID.TID 0000.0001)  ploadbar=  1.01100541490775E+05
 cg2d: Sum(rhs),rhsMax =  -9.06919764606687E+01  1.70465143940722E+00
(PID.TID 0000.0001)  ploadbar=  1.01100449492210E+05
 cg2d: Sum(rhs),rhsMax =  -9.02241157474369E+01  1.71361117103779E+00
(PID.TID 0000.0001)  ploadbar=  1.01099182721959E+05
 cg2d: Sum(rhs),rhsMax =  -8.95923026299246E+01  1.72581333579651E+00
(PID.TID 0000.0001)  ploadbar=  1.01097915951709E+05
 cg2d: Sum(rhs),rhsMax =  -8.90240791803613E+01  1.73694068447002E+00
(PID.TID 0000.0001)  ploadbar=  1.01096649181458E+05
 cg2d: Sum(rhs),rhsMax =  -8.85051112385006E+01  1.74722686030901E+00
(PID.TID 0000.0001)  ploadbar=  1.01095382411208E+05
 cg2d: Sum(rhs),rhsMax =  -8.80055057213241E+01  1.75723038949406E+00
(PID.TID 0000.0001)  ploadbar=  1.01094115640957E+05
 cg2d: Sum(rhs),rhsMax =  -8.74905939779524E+01  1.76763480676303E+00
(PID.TID 0000.0001)  ploadbar=  1.01092848870707E+05
 cg2d: Sum(rhs),rhsMax =  -8.69654798931155E+01  1.77836228695419E+00
(PID.TID 0000.0001)  ploadbar=  1.01093164881845E+05
 cg2d: Sum(rhs),rhsMax =  -8.64621158226507E+01  1.78875735606422E+00
(PID.TID 0000.0001)  ploadbar=  1.01093480892983E+05
 cg2d: Sum(rhs),rhsMax =  -8.59924832220255E+01  1.79855414485138E+00
(PID.TID 0000.0001)  ploadbar=  1.01093796904121E+05
 cg2d: Sum(rhs),rhsMax =  -8.55571224809312E+01  1.80771683798831E+00
(PID.TID 0000.0001)  ploadbar=  1.01094112915259E+05
 cg2d: Sum(rhs),rhsMax =  -8.51570162351062E+01  1.81620120842657E+00
(PID.TID 0000.0001)  ploadbar=  1.01094428926398E+05
 cg2d: Sum(rhs),rhsMax =  -8.47957609512276E+01  1.82390669907460E+00
(PID.TID 0000.0001)  ploadbar=  1.01094744937536E+05
 cg2d: Sum(rhs),rhsMax =  -8.44801867206028E+01  1.83073126887482E+00
(PID.TID 0000.0001)  ploadbar=  1.01095236471893E+05
 cg2d: Sum(rhs),rhsMax =  -8.41962102052641E+01  1.83695911547354E+00
(PID.TID 0000.0001)  ploadbar=  1.01095728006250E+05
 cg2d: Sum(rhs),rhsMax =  -8.39416844377848E+01  1.84262211123195E+00
(PID.TID 0000.0001)  ploadbar=  1.01096219540608E+05
 cg2d: Sum(rhs),rhsMax =  -8.36969405814892E+01  1.84813776803988E+00
(PID.TID 0000.0001)  ploadbar=  1.01096711074965E+05
 cg2d: Sum(rhs),rhsMax =  -8.34550923231454E+01  1.85365173733184E+00
(PID.TID 0000.0001)  ploadbar=  1.01097202609322E+05
 cg2d: Sum(rhs),rhsMax =  -8.32452087778855E+01  1.85851244095662E+00
(PID.TID 0000.0001)  ploadbar=  1.01097694143680E+05
 cg2d: Sum(rhs),rhsMax =  -8.31044622969633E+01  1.86183882451354E+00
(PID.TID 0000.0001)  ploadbar=  1.01097644218405E+05
 cg2d: Sum(rhs),rhsMax =  -8.30557377552821E+01  1.86309944373815E+00
(PID.TID 0000.0001)  ploadbar=  1.01097594293130E+05
 cg2d: Sum(rhs),rhsMax =  -8.30816611659358E+01  1.86267194706431E+00
(PID.TID 0000.0001)  ploadbar=  1.01097544367855E+05
 cg2d: Sum(rhs),rhsMax =  -8.31279386526096E+01  1.86177124191245E+00
(PID.TID 0000.0001)  ploadbar=  1.01097494442580E+05
 cg2d: Sum(rhs),rhsMax =  -8.31759861398288E+01  1.86081090512905E+00
(PID.TID 0000.0001)  ploadbar=  1.01097444517304E+05
 cg2d: Sum(rhs),rhsMax =  -8.32040962463473E+01  1.86027043795988E+00
(PID.TID 0000.0001)  ploadbar=  1.01097394592029E+05
 cg2d: Sum(rhs),rhsMax =  -8.32224387827634E+01  1.85995605524680E+00
(PID.TID 0000.0001)  ploadbar=  1.01097645548669E+05
 cg2d: Sum(rhs),rhsMax =  -8.32133724949187E+01  1.86025959338814E+00
(PID.TID 0000.0001)  ploadbar=  1.01097896505308E+05
 cg2d: Sum(rhs),rhsMax =  -8.31779211924755E+01  1.86115580142014E+00
(PID.TID 0000.0001)  ploadbar=  1.01098147461947E+05
 cg2d: Sum(rhs),rhsMax =  -8.31234738220616E+01  1.86247811595087E+00
(PID.TID 0000.0001)  ploadbar=  1.01098398418586E+05
 cg2d: Sum(rhs),rhsMax =  -8.30515653528703E+01  1.86418822411674E+00
(PID.TID 0000.0001)  ploadbar=  1.01098649375225E+05
 cg2d: Sum(rhs),rhsMax =  -8.29644254148899E+01  1.86623123336033E+00
(PID.TID 0000.0001)  ploadbar=  1.01098900331865E+05
 cg2d: Sum(rhs),rhsMax =  -8.28808975548494E+01  1.86817708200403E+00
(PID.TID 0000.0001)  ploadbar=  1.01100089074953E+05
 cg2d: Sum(rhs),rhsMax =  -8.28286904647027E+01  1.86939720285408E+00
(PID.TID 0000.0001)  ploadbar=  1.01101277818041E+05
 cg2d: Sum(rhs),rhsMax =  -8.28107895064770E+01  1.86981735743838E+00
(PID.TID 0000.0001)  ploadbar=  1.01102466561129E+05
 cg2d: Sum(rhs),rhsMax =  -8.28169134272548E+01  1.86966614052197E+00
(PID.TID 0000.0001)  ploadbar=  1.01103655304217E+05
 cg2d: Sum(rhs),rhsMax =  -8.28323364133082E+01  1.86927291554426E+00
(PID.TID 0000.0001)  ploadbar=  1.01104844047305E+05
 cg2d: Sum(rhs),rhsMax =  -8.28488086269102E+01  1.86881880060784E+00
(PID.TID 0000.0001)  ploadbar=  1.01106032790393E+05
 cg2d: Sum(rhs),rhsMax =  -8.28668989458819E+01  1.86836387967328E+00
(PID.TID 0000.0001)  ploadbar=  1.01107494665371E+05
 cg2d: Sum(rhs),rhsMax =  -8.28766812630867E+01  1.86813028150120E+00
(PID.TID 0000.0001)  ploadbar=  1.01108956540348E+05
 cg2d: Sum(rhs),rhsMax =  -8.28703687536533E+01  1.86829090127853E+00
(PID.TID 0000.0001)  ploadbar=  1.01110418415326E+05
 cg2d: Sum(rhs),rhsMax =  -8.28366825808861E+01  1.86909620370239E+00
(PID.TID 0000.0001)  ploadbar=  1.01111880290304E+05
 cg2d: Sum(rhs),rhsMax =  -8.27704089784280E+01  1.87066168548827E+00
(PID.TID 0000.0001)  ploadbar=  1.01113342165282E+05
 cg2d: Sum(rhs),rhsMax =  -8.26742934359506E+01  1.87292602924608E+00
(PID.TID 0000.0001)  ploadbar=  1.01114804040260E+05
 cg2d: Sum(rhs),rhsMax =  -8.25705834409505E+01  1.87534365869409E+00
(PID.TID 0000.0001)  ploadbar=  1.01115772848129E+05
 cg2d: Sum(rhs),rhsMax =  -8.24629667568847E+01  1.87783041579579E+00
(PID.TID 0000.0001)  ploadbar=  1.01116741655998E+05
 cg2d: Sum(rhs),rhsMax =  -8.23644495614590E+01  1.88008307478708E+00
(PID.TID 0000.0001)  ploadbar=  1.01117710463866E+05
 cg2d: Sum(rhs),rhsMax =  -8.22863216673905E+01  1.88183655786990E+00
(PID.TID 0000.0001)  ploadbar=  1.01118679271735E+05
 cg2d: Sum(rhs),rhsMax =  -8.22334407987960E+01  1.88297622429376E+00
(PID.TID 0000.0001)  ploadbar=  1.01119648079604E+05
 cg2d: Sum(rhs),rhsMax =  -8.22015240214298E+01  1.88359443682523E+00
(PID.TID 0000.0001)  ploadbar=  1.01120616887473E+05
 cg2d: Sum(rhs),rhsMax =  -8.21965839130571E+01  1.88361471972123E+00
(PID.TID 0000.0001)  ploadbar=  1.01122098466434E+05
 cg2d: Sum(rhs),rhsMax =  -8.21921887907604E+01  1.88363774985676E+00
(PID.TID 0000.0001)  ploadbar=  1.01123580045396E+05
 cg2d: Sum(rhs),rhsMax =  -8.21726285704080E+01  1.88401929252516E+00
(PID.TID 0000.0001)  ploadbar=  1.01125061624357E+05
 cg2d: Sum(rhs),rhsMax =  -8.21239624822923E+01  1.88507576863875E+00
(PID.TID 0000.0001)  ploadbar=  1.01126543203319E+05
 cg2d: Sum(rhs),rhsMax =  -8.20408244794462E+01  1.88692768084874E+00
(PID.TID 0000.0001)  ploadbar=  1.01128024782280E+05
 cg2d: Sum(rhs),rhsMax =  -8.19337964058935E+01  1.88932979180655E+00
(PID.TID 0000.0001)  ploadbar=  1.01129506361241E+05
 cg2d: Sum(rhs),rhsMax =  -8.18198640217228E+01  1.89189858786893E+00
(PID.TID 0000.0001)  ploadbar=  1.01130531132215E+05
 cg2d: Sum(rhs),rhsMax =  -8.17262949251019E+01  1.89399955505761E+00
(PID.TID 0000.0001)  ploadbar=  1.01131555903189E+05
 cg2d: Sum(rhs),rhsMax =  -8.16526289612766E+01  1.89563563228060E+00
(PID.TID 0000.0001)  ploadbar=  1.01132580674162E+05
 cg2d: Sum(rhs),rhsMax =  -8.16094749464694E+01  1.89655426084987E+00
(PID.TID 0000.0001)  ploadbar=  1.01133605445136E+05
 cg2d: Sum(rhs),rhsMax =  -8.16140813512480E+01  1.89634542462588E+00
(PID.TID 0000.0001)  ploadbar=  1.01134630216109E+05
 cg2d: Sum(rhs),rhsMax =  -8.16924516919529E+01  1.89439968440275E+00
(PID.TID 0000.0001)  ploadbar=  1.01135654987083E+05
 cg2d: Sum(rhs),rhsMax =  -8.19119786858803E+01  1.88923326225833E+00
(PID.TID 0000.0001)  ploadbar=  1.01136191457676E+05
 cg2d: Sum(rhs),rhsMax =  -8.23716895110791E+01  1.87863469827422E+00
(PID.TID 0000.0001)  ploadbar=  1.01136727928268E+05
 cg2d: Sum(rhs),rhsMax =  -8.30009788841649E+01  1.86436853826191E+00
(PID.TID 0000.0001)  ploadbar=  1.01137264398860E+05
 cg2d: Sum(rhs),rhsMax =  -8.36538597512664E+01  1.84982734933102E+00
(PID.TID 0000.0001)  ploadbar=  1.01137800869453E+05
 cg2d: Sum(rhs),rhsMax =  -8.42886161871546E+01  1.83593562118034E+00
(PID.TID 0000.0001)  ploadbar=  1.01138337340045E+05
 cg2d: Sum(rhs),rhsMax =  -8.48511956054977E+01  1.82382580719683E+00
(PID.TID 0000.0001)  ploadbar=  1.01138873810638E+05
 cg2d: Sum(rhs),rhsMax =  -8.53017230336375E+01  1.81424426353353E+00
(PID.TID 0000.0001)  ploadbar=  1.01139421878085E+05
 cg2d: Sum(rhs),rhsMax =  -8.57498469451760E+01  1.80480147924394E+00
(PID.TID 0000.0001)  ploadbar=  1.01139969945532E+05
 cg2d: Sum(rhs),rhsMax =  -8.62072612873166E+01  1.79524960863660E+00
(PID.TID 0000.0001)  ploadbar=  1.01140518012980E+05
 cg2d: Sum(rhs),rhsMax =  -8.67153216940806E+01  1.78473897240943E+00
(PID.TID 0000.0001)  ploadbar=  1.01141066080427E+05
 cg2d: Sum(rhs),rhsMax =  -8.73510406214439E+01  1.77173863111712E+00
(PID.TID 0000.0001)  ploadbar=  1.01141614147874E+05
 cg2d: Sum(rhs),rhsMax =  -8.80794306892835E+01  1.75705187572658E+00
(PID.TID 0000.0001)  ploadbar=  1.01142162215322E+05
 cg2d: Sum(rhs),rhsMax =  -8.86838864713671E+01  1.74505979463997E+00
(PID.TID 0000.0001)  ploadbar=  1.01142196199027E+05
 cg2d: Sum(rhs),rhsMax =  -8.88683905748131E+01  1.74143585362029E+00
(PID.TID 0000.0001)  ploadbar=  1.01142230182731E+05
 cg2d: Sum(rhs),rhsMax =  -8.85320033639086E+01  1.74806432450316E+00
(PID.TID 0000.0001)  ploadbar=  1.01142264166436E+05
 cg2d: Sum(rhs),rhsMax =  -8.77676514848144E+01  1.76331227885777E+00
(PID.TID 0000.0001)  ploadbar=  1.01142298150141E+05
 cg2d: Sum(rhs),rhsMax =  -8.67678212761545E+01  1.78366540006882E+00
(PID.TID 0000.0001)  ploadbar=  1.01142332133846E+05
 cg2d: Sum(rhs),rhsMax =  -8.56897177880595E+01  1.80614605590339E+00
(PID.TID 0000.0001)  ploadbar=  1.01142366117551E+05
 cg2d: Sum(rhs),rhsMax =  -8.47274701202719E+01  1.82668829755584E+00
(PID.TID 0000.0001)  ploadbar=  1.01141658589231E+05
 cg2d: Sum(rhs),rhsMax =  -8.39506751964682E+01  1.84360951035168E+00
(PID.TID 0000.0001)  ploadbar=  1.01140951060910E+05
 cg2d: Sum(rhs),rhsMax =  -8.33919549240293E+01  1.85596581679899E+00
(PID.TID 0000.0001)  ploadbar=  1.01140243532590E+05
 cg2d: Sum(rhs),rhsMax =  -8.30598122764231E+01  1.86337555780372E+00
(PID.TID 0000.0001)  ploadbar=  1.01139536004269E+05
 cg2d: Sum(rhs),rhsMax =  -8.29330711509896E+01  1.86619103229840E+00
(PID.TID 0000.0001)  ploadbar=  1.01138828475949E+05
 cg2d: Sum(rhs),rhsMax =  -8.29265142667571E+01  1.86628282887855E+00
(PID.TID 0000.0001)  ploadbar=  1.01138120947628E+05
 cg2d: Sum(rhs),rhsMax =  -8.29488321640623E+01  1.86576672191394E+00
(PID.TID 0000.0001)  ploadbar=  1.01137826229348E+05
 cg2d: Sum(rhs),rhsMax =  -8.30480522389793E+01  1.86356485995923E+00
(PID.TID 0000.0001)  ploadbar=  1.01137531511067E+05
 cg2d: Sum(rhs),rhsMax =  -8.32806507784933E+01  1.85842525712648E+00
(PID.TID 0000.0001)  ploadbar=  1.01137236792786E+05
 cg2d: Sum(rhs),rhsMax =  -8.36565590365132E+01  1.85017306570763E+00
(PID.TID 0000.0001)  ploadbar=  1.01136942074505E+05
 cg2d: Sum(rhs),rhsMax =  -8.41611497154007E+01  1.83920843344494E+00
(PID.TID 0000.0001)  ploadbar=  1.01136647356224E+05
 cg2d: Sum(rhs),rhsMax =  -8.47569400319474E+01  1.82643451744349E+00
(PID.TID 0000.0001)  ploadbar=  1.01136352637943E+05
 cg2d: Sum(rhs),rhsMax =  -8.53471436891858E+01  1.81395905263298E+00
(PID.TID 0000.0001)  ploadbar=  1.01135267393502E+05
 cg2d: Sum(rhs),rhsMax =  -8.58597069566876E+01  1.80328261464671E+00
(PID.TID 0000.0001)  ploadbar=  1.01134182149061E+05
 cg2d: Sum(rhs),rhsMax =  -8.62677300440590E+01  1.79490043926195E+00
(PID.TID 0000.0001)  ploadbar=  1.01133096904619E+05
 cg2d: Sum(rhs),rhsMax =  -8.65640603035526E+01  1.78889796893706E+00
(PID.TID 0000.0001)  ploadbar=  1.01132011660178E+05
 cg2d: Sum(rhs),rhsMax =  -8.67771790054645E+01  1.78463894474857E+00
(PID.TID 0000.0001)  ploadbar=  1.01130926415737E+05
 cg2d: Sum(rhs),rhsMax =  -8.69396012979023E+01  1.78143034259065E+00
(PID.TID 0000.0001)  ploadbar=  1.01129841171295E+05
 cg2d: Sum(rhs),rhsMax =  -8.70695921970226E+01  1.77889663258473E+00
(PID.TID 0000.0001)  ploadbar=  1.01128855471939E+05
 cg2d: Sum(rhs),rhsMax =  -8.71888323249641E+01  1.77658827692923E+00
(PID.TID 0000.0001)  ploadbar=  1.01127869772582E+05
 cg2d: Sum(rhs),rhsMax =  -8.73088438530877E+01  1.77426819056382E+00
(PID.TID 0000.0001)  ploadbar=  1.01126884073225E+05
 cg2d: Sum(rhs),rhsMax =  -8.74234420466648E+01  1.77205741710606E+00
(PID.TID 0000.0001)  ploadbar=  1.01125898373869E+05
 cg2d: Sum(rhs),rhsMax =  -8.75366233523227E+01  1.76987224762689E+00
(PID.TID 0000.0001)  ploadbar=  1.01124912674512E+05
 cg2d: Sum(rhs),rhsMax =  -8.76303016665867E+01  1.76807233460648E+00
(PID.TID 0000.0001)  ploadbar=  1.01123926975155E+05
 cg2d: Sum(rhs),rhsMax =  -8.76518807892250E+01  1.76771017724823E+00
(PID.TID 0000.0001)  ploadbar=  1.01122239417931E+05
 cg2d: Sum(rhs),rhsMax =  -8.76072610839697E+01  1.76866423904494E+00
(PID.TID 0000.0001)  ploadbar=  1.01120551860707E+05
 cg2d: Sum(rhs),rhsMax =  -8.74855463851908E+01  1.77115733476212E+00
(PID.TID 0000.0001)  ploadbar=  1.01118864303483E+05
 cg2d: Sum(rhs),rhsMax =  -8.73054690413596E+01  1.77481873987228E+00
(PID.TID 0000.0001)  ploadbar=  1.01117176746259E+05
 cg2d: Sum(rhs),rhsMax =  -8.70912326531217E+01  1.77916607695588E+00
(PID.TID 0000.0001)  ploadbar=  1.01115489189035E+05
 cg2d: Sum(rhs),rhsMax =  -8.68648800618204E+01  1.78375371775352E+00
(PID.TID 0000.0001)  ploadbar=  1.01113801631811E+05
 cg2d: Sum(rhs),rhsMax =  -8.66193177643418E+01  1.78880020554270E+00
(PID.TID 0000.0001)  ploadbar=  1.01112924634693E+05
 cg2d: Sum(rhs),rhsMax =  -8.63609800932787E+01  1.79417967963946E+00
(PID.TID 0000.0001)  ploadbar=  1.01112047637575E+05
 cg2d: Sum(rhs),rhsMax =  -8.61389787925238E+01  1.79886739314359E+00
(PID.TID 0000.0001)  ploadbar=  1.01111170640457E+05
 cg2d: Sum(rhs),rhsMax =  -8.59945304626104E+01  1.80198360115857E+00
(PID.TID 0000.0001)  ploadbar=  1.01110293643339E+05
 cg2d: Sum(rhs),rhsMax =  -8.58436110430125E+01  1.80527405217041E+00
(PID.TID 0000.0001)  ploadbar=  1.01109416646221E+05
 cg2d: Sum(rhs),rhsMax =  -8.56275119700160E+01  1.80997198941270E+00
(PID.TID 0000.0001)  ploadbar=  1.01108539649103E+05
 cg2d: Sum(rhs),rhsMax =  -8.54463380161080E+01  1.81395792893917E+00
(PID.TID 0000.0001)  ploadbar=  1.01107580109288E+05
 cg2d: Sum(rhs),rhsMax =  -8.53162600423672E+01  1.81687406185283E+00
(PID.TID 0000.0001)  ploadbar=  1.01106620569474E+05
 cg2d: Sum(rhs),rhsMax =  -8.52150059434225E+01  1.81918313445304E+00
(PID.TID 0000.0001)  ploadbar=  1.01105661029659E+05
 cg2d: Sum(rhs),rhsMax =  -8.49392526959409E+01  1.82523424408775E+00
(PID.TID 0000.0001)  ploadbar=  1.01104701489845E+05
 cg2d: Sum(rhs),rhsMax =  -8.45803855689883E+01  1.83311294571462E+00
(PID.TID 0000.0001)  ploadbar=  1.01103741950030E+05
 cg2d: Sum(rhs),rhsMax =  -8.42047041953933E+01  1.84141093427314E+00
(PID.TID 0000.0001)  ploadbar=  1.01102782410216E+05
 cg2d: Sum(rhs),rhsMax =  -8.38161356412993E+01  1.85007665585345E+00
(PID.TID 0000.0001)  ploadbar=  1.01102659078988E+05
 cg2d: Sum(rhs),rhsMax =  -8.34694156629285E+01  1.85789716058536E+00
(PID.TID 0000.0001)  ploadbar=  1.01102535747760E+05
 cg2d: Sum(rhs),rhsMax =  -8.31990451597795E+01  1.86407545455483E+00
(PID.TID 0000.0001)  ploadbar=  1.01102412416532E+05
 cg2d: Sum(rhs),rhsMax =  -8.30232889206195E+01  1.86816254357083E+00
(PID.TID 0000.0001)  ploadbar=  1.01102289085304E+05
 cg2d: Sum(rhs),rhsMax =  -8.29443496639286E+01  1.87007891174825E+00
(PID.TID 0000.0001)  ploadbar=  1.01102165754076E+05
 cg2d: Sum(rhs),rhsMax =  -8.29527165527211E+01  1.87002040649407E+00
(PID.TID 0000.0001)  ploadbar=  1.01102042422848E+05
 cg2d: Sum(rhs),rhsMax =  -8.30148594062561E+01  1.86873424656216E+00
(PID.TID 0000.0001)  ploadbar=  1.01102374661914E+05
 cg2d: Sum(rhs),rhsMax =  -8.30829264407380E+01  1.86729853654419E+00
(PID.TID 0000.0001)  ploadbar=  1.01102706900981E+05
 cg2d: Sum(rhs),rhsMax =  -8.31462717186114E+01  1.86594956742027E+00
(PID.TID 0000.0001)  ploadbar=  1.01103039140047E+05
 cg2d: Sum(rhs),rhsMax =  -8.29194015584902E+01  1.87110230186316E+00
(PID.TID 0000.0001)  ploadbar=  1.01103371379113E+05
 cg2d: Sum(rhs),rhsMax =  -8.26237118508495E+01  1.87781454183605E+00
(PID.TID 0000.0001)  ploadbar=  1.01103703618179E+05
 cg2d: Sum(rhs),rhsMax =  -8.23821732211080E+01  1.88329734767561E+00
(PID.TID 0000.0001)  ploadbar=  1.01104035857246E+05
 cg2d: Sum(rhs),rhsMax =  -8.22016239653963E+01  1.88744940604480E+00
(PID.TID 0000.0001)  ploadbar=  1.01104386685685E+05
 cg2d: Sum(rhs),rhsMax =  -8.20533389914111E+01  1.89091088012831E+00
(PID.TID 0000.0001)  ploadbar=  1.01104737514123E+05
 cg2d: Sum(rhs),rhsMax =  -8.19222787408624E+01  1.89401616719350E+00
(PID.TID 0000.0001)  ploadbar=  1.01105088342562E+05
 cg2d: Sum(rhs),rhsMax =  -8.17895511121045E+01  1.89719165420580E+00
(PID.TID 0000.0001)  ploadbar=  1.01105439171001E+05
 cg2d: Sum(rhs),rhsMax =  -8.16455038931440E+01  1.90065986131203E+00
(PID.TID 0000.0001)  ploadbar=  1.01105789999440E+05
 cg2d: Sum(rhs),rhsMax =  -8.14866496056889E+01  1.90450091099336E+00
(PID.TID 0000.0001)  ploadbar=  1.01106140827879E+05
 cg2d: Sum(rhs),rhsMax =  -8.13092749733007E+01  1.90880651430353E+00
(PID.TID 0000.0001)  ploadbar=  1.01107159383190E+05
 cg2d: Sum(rhs),rhsMax =  -8.11103639019194E+01  1.91364817158881E+00
(PID.TID 0000.0001)  ploadbar=  1.01108177938501E+05
 cg2d: Sum(rhs),rhsMax =  -8.08999542178320E+01  1.91878921348309E+00
(PID.TID 0000.0001)  ploadbar=  1.01109196493812E+05
 cg2d: Sum(rhs),rhsMax =  -8.06970795211563E+01  1.92377824296155E+00
(PID.TID 0000.0001)  ploadbar=  1.01110215049123E+05
 cg2d: Sum(rhs),rhsMax =  -8.05160836835280E+01  1.92826863558961E+00
(PID.TID 0000.0001)  ploadbar=  1.01111233604434E+05
 cg2d: Sum(rhs),rhsMax =  -8.03686410803193E+01  1.93196937531985E+00
(PID.TID 0000.0001)  ploadbar=  1.01112252159745E+05
 cg2d: Sum(rhs),rhsMax =  -8.02713574080509E+01  1.93448178510381E+00
(PID.TID 0000.0001)  ploadbar=  1.01113756856212E+05
 cg2d: Sum(rhs),rhsMax =  -8.02161018700817E+01  1.93598886689119E+00
(PID.TID 0000.0001)  ploadbar=  1.01115261552679E+05
 cg2d: Sum(rhs),rhsMax =  -8.01910134619964E+01  1.93676754536849E+00
(PID.TID 0000.0001)  ploadbar=  1.01116766249146E+05
 cg2d: Sum(rhs),rhsMax =  -8.01867678167413E+01  1.93703689156565E+00
(PID.TID 0000.0001)  ploadbar=  1.01118270945613E+05
 cg2d: Sum(rhs),rhsMax =  -8.01937841071809E+01  1.93702450447924E+00
(PID.TID 0000.0001)  ploadbar=  1.01119775642081E+05
 cg2d: Sum(rhs),rhsMax =  -8.02066921756183E+01  1.93685533156703E+00
(PID.TID 0000.0001)  ploadbar=  1.01121280338548E+05
 cg2d: Sum(rhs),rhsMax =  -8.02136305338674E+01  1.93679513553107E+00
(PID.TID 0000.0001)  ploadbar=  1.01122866766253E+05
 cg2d: Sum(rhs),rhsMax =  -8.02204844126460E+01  1.93670095454602E+00
(PID.TID 0000.0001)  ploadbar=  1.01124453193958E+05
 cg2d: Sum(rhs),rhsMax =  -8.02296371070844E+01  1.93651245496274E+00
(PID.TID 0000.0001)  ploadbar=  1.01126039621663E+05
 cg2d: Sum(rhs),rhsMax =  -8.02506848064087E+01  1.93599247117710E+00
(PID.TID 0000.0001)  ploadbar=  1.01127626049368E+05
 cg2d: Sum(rhs),rhsMax =  -8.02931096698344E+01  1.93490934471185E+00
(PID.TID 0000.0001)  ploadbar=  1.01129212477073E+05
 cg2d: Sum(rhs),rhsMax =  -8.03688807403849E+01  1.93297184872816E+00
(PID.TID 0000.0001)  ploadbar=  1.01130798904779E+05
 cg2d: Sum(rhs),rhsMax =  -8.04990395217663E+01  1.92975990470595E+00
(PID.TID 0000.0001)  ploadbar=  1.01132346184771E+05
 cg2d: Sum(rhs),rhsMax =  -8.06981552902921E+01  1.92493618214895E+00
(PID.TID 0000.0001)  ploadbar=  1.01133893464763E+05
 cg2d: Sum(rhs),rhsMax =  -8.09820024704398E+01  1.91815045069241E+00
(PID.TID 0000.0001)  ploadbar=  1.01135440744755E+05
 cg2d: Sum(rhs),rhsMax =  -8.13616750317390E+01  1.90918128891101E+00
(PID.TID 0000.0001)  ploadbar=  1.01136988024747E+05
 cg2d: Sum(rhs),rhsMax =  -8.18414936411493E+01  1.89798805747497E+00
(PID.TID 0000.0001)  ploadbar=  1.01138535304740E+05
 cg2d: Sum(rhs),rhsMax =  -8.24115447089748E+01  1.88487423231614E+00
(PID.TID 0000.0001)  ploadbar=  1.01140082584732E+05
 cg2d: Sum(rhs),rhsMax =  -8.30132859247453E+01  1.87122714337378E+00
(PID.TID 0000.0001)  ploadbar=  1.01140379818495E+05
 cg2d: Sum(rhs),rhsMax =  -8.35897529322956E+01  1.85833631600315E+00
(PID.TID 0000.0001)  ploadbar=  1.01140677052258E+05
 cg2d: Sum(rhs),rhsMax =  -8.40998946415189E+01  1.84707422990680E+00
(PID.TID 0000.0001)  ploadbar=  1.01140974286020E+05
 cg2d: Sum(rhs),rhsMax =  -8.45423934020135E+01  1.83740922821971E+00
(PID.TID 0000.0001)  ploadbar=  1.01141271519784E+05
 cg2d: Sum(rhs),rhsMax =  -8.49305297494362E+01  1.82900359592663E+00
(PID.TID 0000.0001)  ploadbar=  1.01141568753546E+05
 cg2d: Sum(rhs),rhsMax =  -8.52755513579930E+01  1.82157833744766E+00
(PID.TID 0000.0001)  ploadbar=  1.01141865987309E+05
 cg2d: Sum(rhs),rhsMax =  -8.56009337604084E+01  1.81462822976904E+00
(PID.TID 0000.0001)  ploadbar=  1.01141480746920E+05
 cg2d: Sum(rhs),rhsMax =  -8.59260772045575E+01  1.80773064786798E+00
(PID.TID 0000.0001)  ploadbar=  1.01141095506530E+05
 cg2d: Sum(rhs),rhsMax =  -8.62548431786598E+01  1.80080242508633E+00
(PID.TID 0000.0001)  ploadbar=  1.01140710266141E+05
 cg2d: Sum(rhs),rhsMax =  -8.65886116068360E+01  1.79381269028741E+00
(PID.TID 0000.0001)  ploadbar=  1.01140325025752E+05
 cg2d: Sum(rhs),rhsMax =  -8.68336132950111E+01  1.78868597643519E+00
(PID.TID 0000.0001)  ploadbar=  1.01139939785363E+05
 cg2d: Sum(rhs),rhsMax =  -8.67675609248040E+01  1.78995874351883E+00
(PID.TID 0000.0001)  ploadbar=  1.01139554544973E+05
 cg2d: Sum(rhs),rhsMax =  -8.67363714581595E+01  1.79051479251438E+00
(PID.TID 0000.0001)  ploadbar=  1.01139264226588E+05
 cg2d: Sum(rhs),rhsMax =  -8.67430303401268E+01  1.79028971690563E+00
(PID.TID 0000.0001)  ploadbar=  1.01138973908202E+05
 cg2d: Sum(rhs),rhsMax =  -8.67907920287653E+01  1.78921280683153E+00
(PID.TID 0000.0001)  ploadbar=  1.01138683589817E+05
 cg2d: Sum(rhs),rhsMax =  -8.68789647723881E+01  1.78729488432047E+00
(PID.TID 0000.0001)  ploadbar=  1.01138393271431E+05
 cg2d: Sum(rhs),rhsMax =  -8.70109904688192E+01  1.78446625063355E+00
(PID.TID 0000.0001)  ploadbar=  1.01138102953046E+05
 cg2d: Sum(rhs),rhsMax =  -8.71889557171379E+01  1.78068997081863E+00
(PID.TID 0000.0001)  ploadbar=  1.01137812634660E+05
 cg2d: Sum(rhs),rhsMax =  -8.74039956956627E+01  1.77621155028054E+00
(PID.TID 0000.0001)  ploadbar=  1.01137570665798E+05
 cg2d: Sum(rhs),rhsMax =  -8.76453615124663E+01  1.77125488116507E+00
(PID.TID 0000.0001)  ploadbar=  1.01137328696936E+05
 cg2d: Sum(rhs),rhsMax =  -8.79107295561965E+01  1.76587065865754E+00
(PID.TID 0000.0001)  ploadbar=  1.01137086728074E+05
 cg2d: Sum(rhs),rhsMax =  -8.76998069331038E+01  1.77010368337694E+00
(PID.TID 0000.0001)  ploadbar=  1.01136844759211E+05
 cg2d: Sum(rhs),rhsMax =  -8.73528489253489E+01  1.77713928608157E+00
(PID.TID 0000.0001)  ploadbar=  1.01136602790349E+05
 cg2d: Sum(rhs),rhsMax =  -8.69571837157558E+01  1.78524691445234E+00
(PID.TID 0000.0001)  ploadbar=  1.01136360821487E+05
 cg2d: Sum(rhs),rhsMax =  -8.65311488999264E+01  1.79406967364024E+00
(PID.TID 0000.0001)  ploadbar=  1.01135925177494E+05
 cg2d: Sum(rhs),rhsMax =  -8.61211055451797E+01  1.80265090607743E+00
(PID.TID 0000.0001)  ploadbar=  1.01135489533500E+05
 cg2d: Sum(rhs),rhsMax =  -8.57340330493789E+01  1.81082820342820E+00
(PID.TID 0000.0001)  ploadbar=  1.01135053889507E+05
 cg2d: Sum(rhs),rhsMax =  -8.53686203639984E+01  1.81861366537588E+00
(PID.TID 0000.0001)  ploadbar=  1.01134618245514E+05
 cg2d: Sum(rhs),rhsMax =  -8.50196555983058E+01  1.82610219487672E+00
(PID.TID 0000.0001)  ploadbar=  1.01134182601520E+05
 cg2d: Sum(rhs),rhsMax =  -8.46761197126922E+01  1.83352077726653E+00
(PID.TID 0000.0001)  ploadbar=  1.01133746957527E+05
 cg2d: Sum(rhs),rhsMax =  -8.43225329311112E+01  1.84123817477215E+00
(PID.TID 0000.0001)  ploadbar=  1.01132466444807E+05
 cg2d: Sum(rhs),rhsMax =  -8.39672390919999E+01  1.84907049124105E+00
(PID.TID 0000.0001)  ploadbar=  1.01131185932088E+05
 cg2d: Sum(rhs),rhsMax =  -8.36114203962519E+01  1.85699307501083E+00
(PID.TID 0000.0001)  ploadbar=  1.01129905419368E+05
 cg2d: Sum(rhs),rhsMax =  -8.32576989985016E+01  1.86494430300778E+00
(PID.TID 0000.0001)  ploadbar=  1.01128624906648E+05
 cg2d: Sum(rhs),rhsMax =  -8.29113918192392E+01  1.87279682788727E+00
(PID.TID 0000.0001)  ploadbar=  1.01127344393928E+05
 cg2d: Sum(rhs),rhsMax =  -8.25795407860320E+01  1.88038119724937E+00
(PID.TID 0000.0001)  ploadbar=  1.01126063881208E+05
 cg2d: Sum(rhs),rhsMax =  -8.22792675713079E+01  1.88728530785656E+00
(PID.TID 0000.0001)  ploadbar=  1.01126127400098E+05
 cg2d: Sum(rhs),rhsMax =  -8.20149848641759E+01  1.89339047674017E+00
(PID.TID 0000.0001)  ploadbar=  1.01126190918988E+05
 cg2d: Sum(rhs),rhsMax =  -8.17844108480721E+01  1.89873183440016E+00
(PID.TID 0000.0001)  ploadbar=  1.01126254437878E+05
 cg2d: Sum(rhs),rhsMax =  -8.15808129202096E+01  1.90344604764831E+00
(PID.TID 0000.0001)  ploadbar=  1.01126317956767E+05
 cg2d: Sum(rhs),rhsMax =  -8.13998745013035E+01  1.90761759399480E+00
(PID.TID 0000.0001)  ploadbar=  1.01126381475657E+05
 cg2d: Sum(rhs),rhsMax =  -8.12336952937638E+01  1.91142027306632E+00
(PID.TID 0000.0001)  ploadbar=  1.01126444994547E+05
 cg2d: Sum(rhs),rhsMax =  -8.10977707577168E+01  1.91456422732635E+00
(PID.TID 0000.0001)  ploadbar=  1.01125709719917E+05
 cg2d: Sum(rhs),rhsMax =  -8.09605759888064E+01  1.91778302752624E+00
(PID.TID 0000.0001)  ploadbar=  1.01124974445288E+05
 cg2d: Sum(rhs),rhsMax =  -8.08340629271586E+01  1.92078235776042E+00
(PID.TID 0000.0001)  ploadbar=  1.01124239170659E+05
 cg2d: Sum(rhs),rhsMax =  -8.07340953081339E+01  1.92317172088778E+00
(PID.TID 0000.0001)  ploadbar=  1.01123503896029E+05
 cg2d: Sum(rhs),rhsMax =  -8.06746942514036E+01  1.92460591106490E+00
(PID.TID 0000.0001)  ploadbar=  1.01122768621400E+05
 cg2d: Sum(rhs),rhsMax =  -8.06618086608537E+01  1.92493139410421E+00
(PID.TID 0000.0001)  ploadbar=  1.01122033346771E+05
 cg2d: Sum(rhs),rhsMax =  -8.07114597084932E+01  1.92378152622041E+00
(PID.TID 0000.0001)  ploadbar=  1.01120472338313E+05
 cg2d: Sum(rhs),rhsMax =  -8.08241263392593E+01  1.92114712496872E+00
(PID.TID 0000.0001)  ploadbar=  1.01118911329854E+05
 cg2d: Sum(rhs),rhsMax =  -8.10096157371740E+01  1.91680475202558E+00
(PID.TID 0000.0001)  ploadbar=  1.01117350321396E+05
 cg2d: Sum(rhs),rhsMax =  -8.12852700493159E+01  1.91036630858335E+00
(PID.TID 0000.0001)  ploadbar=  1.01115789312938E+05
 cg2d: Sum(rhs),rhsMax =  -8.16540890726428E+01  1.90179997171360E+00
(PID.TID 0000.0001)  ploadbar=  1.01114228304479E+05
 cg2d: Sum(rhs),rhsMax =  -8.21133754605119E+01  1.89122052858416E+00
(PID.TID 0000.0001)  ploadbar=  1.01112667296021E+05
 cg2d: Sum(rhs),rhsMax =  -8.26852983411204E+01  1.87820568621894E+00
(PID.TID 0000.0001)  ploadbar=  1.01111649680713E+05
 cg2d: Sum(rhs),rhsMax =  -8.33525263221129E+01  1.86324172275111E+00
(PID.TID 0000.0001)  ploadbar=  1.01110632065404E+05
 cg2d: Sum(rhs),rhsMax =  -8.40602901808104E+01  1.84762527772177E+00
(PID.TID 0000.0001)  ploadbar=  1.01109614450096E+05
 cg2d: Sum(rhs),rhsMax =  -8.47329527874516E+01  1.83302667448175E+00
(PID.TID 0000.0001)  ploadbar=  1.01108596834788E+05
 cg2d: Sum(rhs),rhsMax =  -8.53088980477452E+01  1.82071110337639E+00
(PID.TID 0000.0001)  ploadbar=  1.01107579219480E+05
 cg2d: Sum(rhs),rhsMax =  -8.57712907332629E+01  1.81093876583631E+00
(PID.TID 0000.0001)  ploadbar=  1.01106561604171E+05
 cg2d: Sum(rhs),rhsMax =  -8.61383030242110E+01  1.80324092031960E+00
(PID.TID 0000.0001)  ploadbar=  1.01106183224004E+05
 cg2d: Sum(rhs),rhsMax =  -8.63890835346687E+01  1.79799661419149E+00
(PID.TID 0000.0001)  ploadbar=  1.01105804843837E+05
 cg2d: Sum(rhs),rhsMax =  -8.64811653612049E+01  1.79604093195455E+00
(PID.TID 0000.0001)  ploadbar=  1.01105426463669E+05
 cg2d: Sum(rhs),rhsMax =  -8.65200828349633E+01  1.79515438687764E+00
(PID.TID 0000.0001)  ploadbar=  1.01105048083502E+05
 cg2d: Sum(rhs),rhsMax =  -8.66567677579377E+01  1.79220528730898E+00
(PID.TID 0000.0001)  ploadbar=  1.01104669703335E+05
 cg2d: Sum(rhs),rhsMax =  -8.69431178353527E+01  1.78614152253562E+00
(PID.TID 0000.0001)  ploadbar=  1.01104291323168E+05
 cg2d: Sum(rhs),rhsMax =  -8.71762881977856E+01  1.78122893564272E+00
(PID.TID 0000.0001)  ploadbar=  1.01103957587280E+05
 cg2d: Sum(rhs),rhsMax =  -8.74548202935964E+01  1.77544185954737E+00
(PID.TID 0000.0001)  ploadbar=  1.01103623851393E+05
 cg2d: Sum(rhs),rhsMax =  -8.77378548289117E+01  1.76961930248218E+00
(PID.TID 0000.0001)  ploadbar=  1.01103290115506E+05
 cg2d: Sum(rhs),rhsMax =  -8.79783717791684E+01  1.76470250285525E+00
(PID.TID 0000.0001)  ploadbar=  1.01102956379618E+05
 cg2d: Sum(rhs),rhsMax =  -8.81716012466238E+01  1.76077026043614E+00
(PID.TID 0000.0001)  ploadbar=  1.01102622643731E+05
 cg2d: Sum(rhs),rhsMax =  -8.83436557936328E+01  1.75728650725551E+00
(PID.TID 0000.0001)  ploadbar=  1.01102288907844E+05
 cg2d: Sum(rhs),rhsMax =  -8.85407417589316E+01  1.75331446320978E+00
(PID.TID 0000.0001)  ploadbar=  1.01101898568096E+05
 cg2d: Sum(rhs),rhsMax =  -8.85035943097469E+01  1.75398206606701E+00
(PID.TID 0000.0001)  ploadbar=  1.01101508228348E+05
 cg2d: Sum(rhs),rhsMax =  -8.82182975566248E+01  1.75957250304560E+00
(PID.TID 0000.0001)  ploadbar=  1.01101117888599E+05
 cg2d: Sum(rhs),rhsMax =  -8.77578838662688E+01  1.76870622634104E+00
(PID.TID 0000.0001)  ploadbar=  1.01100727548851E+05
 cg2d: Sum(rhs),rhsMax =  -8.72400843967509E+01  1.77908755604988E+00
(PID.TID 0000.0001)  ploadbar=  1.01100337209103E+05
 cg2d: Sum(rhs),rhsMax =  -8.67254220168593E+01  1.78950483555804E+00
(PID.TID 0000.0001)  ploadbar=  1.01099946869355E+05
 cg2d: Sum(rhs),rhsMax =  -8.61962191151640E+01  1.80034871998460E+00
(PID.TID 0000.0001)  ploadbar=  1.01099321508883E+05
 cg2d: Sum(rhs),rhsMax =  -8.56678560246335E+01  1.81130366132434E+00
(PID.TID 0000.0001)  ploadbar=  1.01098696148411E+05
 cg2d: Sum(rhs),rhsMax =  -8.50591949924155E+01  1.82410610078892E+00
(PID.TID 0000.0001)  ploadbar=  1.01098070787938E+05
 cg2d: Sum(rhs),rhsMax =  -8.43059921038585E+01  1.84022946071031E+00
(PID.TID 0000.0001)  ploadbar=  1.01097445427466E+05
 cg2d: Sum(rhs),rhsMax =  -8.34116923814722E+01  1.85976756870958E+00
(PID.TID 0000.0001)  ploadbar=  1.01096820066994E+05
 cg2d: Sum(rhs),rhsMax =  -8.24032063038324E+01  1.88231183765004E+00
(PID.TID 0000.0001)  ploadbar=  1.01096194706522E+05
 cg2d: Sum(rhs),rhsMax =  -8.13405605473512E+01  1.90666796414374E+00
(PID.TID 0000.0001)  ploadbar=  1.01095769431838E+05
 cg2d: Sum(rhs),rhsMax =  -8.02790269056796E+01  1.93162382683443E+00
(PID.TID 0000.0001)  ploadbar=  1.01095344157155E+05
 cg2d: Sum(rhs),rhsMax =  -7.92822509172983E+01  1.95562742737407E+00
(PID.TID 0000.0001)  ploadbar=  1.01094918882472E+05
 cg2d: Sum(rhs),rhsMax =  -7.84038946253995E+01  1.97722464481064E+00
(PID.TID 0000.0001)  ploadbar=  1.01094493607789E+05
 cg2d: Sum(rhs),rhsMax =  -7.76837681249802E+01  1.99521000133667E+00
(PID.TID 0000.0001)  ploadbar=  1.01094068333106E+05
 cg2d: Sum(rhs),rhsMax =  -7.71561787822616E+01  2.00847273736528E+00
(PID.TID 0000.0001)  ploadbar=  1.01093643058423E+05
 cg2d: Sum(rhs),rhsMax =  -7.67965059533352E+01  2.01756164757707E+00
(PID.TID 0000.0001)  ploadbar=  1.01092902975532E+05
 cg2d: Sum(rhs),rhsMax =  -7.66112190249277E+01  2.02218212534041E+00
(PID.TID 0000.0001)  ploadbar=  1.01092162892641E+05
 cg2d: Sum(rhs),rhsMax =  -7.65990159261017E+01  2.02230358438674E+00
(PID.TID 0000.0001)  ploadbar=  1.01091422809751E+05
 cg2d: Sum(rhs),rhsMax =  -7.67982796074701E+01  2.01691043467352E+00
(PID.TID 0000.0001)  ploadbar=  1.01090682726860E+05
 cg2d: Sum(rhs),rhsMax =  -7.72334829341573E+01  2.00545263029820E+00
(PID.TID 0000.0001)  ploadbar=  1.01089942643969E+05
 cg2d: Sum(rhs),rhsMax =  -7.79247016052432E+01  1.98761862317584E+00
(PID.TID 0000.0001)  ploadbar=  1.01089202561078E+05
 cg2d: Sum(rhs),rhsMax =  -7.88617554693277E+01  1.96394332362076E+00
(PID.TID 0000.0001)  ploadbar=  1.01088497319894E+05
 cg2d: Sum(rhs),rhsMax =  -8.00535652943760E+01  1.93462967125491E+00
(PID.TID 0000.0001)  ploadbar=  1.01087792078710E+05
 cg2d: Sum(rhs),rhsMax =  -8.14854090544290E+01  1.90053897867568E+00
(PID.TID 0000.0001)  ploadbar=  1.01087086837526E+05
 cg2d: Sum(rhs),rhsMax =  -8.30808579319856E+01  1.86392264657767E+00
(PID.TID 0000.0001)  ploadbar=  1.01086381596342E+05
 cg2d: Sum(rhs),rhsMax =  -8.45155433032304E+01  1.83213725467500E+00
(PID.TID 0000.0001)  ploadbar=  1.01085676355158E+05
 cg2d: Sum(rhs),rhsMax =  -8.58162193936293E+01  1.80419846619936E+00
(PID.TID 0000.0001)  ploadbar=  1.01084971113975E+05
 cg2d: Sum(rhs),rhsMax =  -8.70625637188777E+01  1.77821500054153E+00
(PID.TID 0000.0001)  ploadbar=  1.01084179331509E+05
 cg2d: Sum(rhs),rhsMax =  -8.83277420942504E+01  1.75259813193288E+00
(PID.TID 0000.0001)  ploadbar=  1.01083387549044E+05
 cg2d: Sum(rhs),rhsMax =  -8.95557055436672E+01  1.72842626374754E+00
(PID.TID 0000.0001)  ploadbar=  1.01082595766579E+05
 cg2d: Sum(rhs),rhsMax =  -9.07395947876723E+01  1.70573501220533E+00
(PID.TID 0000.0001)  ploadbar=  1.01081803984114E+05
 cg2d: Sum(rhs),rhsMax =  -9.19556235792026E+01  1.68303619371734E+00
(PID.TID 0000.0001)  ploadbar=  1.01081012201649E+05
 cg2d: Sum(rhs),rhsMax =  -9.35973027653806E+01  1.65336936132574E+00
(PID.TID 0000.0001)  ploadbar=  1.01080220419184E+05
 cg2d: Sum(rhs),rhsMax =  -9.57647468118821E+01  1.61580772074766E+00
(PID.TID 0000.0001)  ploadbar=  1.01078893475254E+05
 cg2d: Sum(rhs),rhsMax =  -9.83884375885883E+01  1.57258455315800E+00
(PID.TID 0000.0001)  ploadbar=  1.01077566531324E+05
 cg2d: Sum(rhs),rhsMax =  -1.00848184440303E+02  1.53409583353397E+00
(PID.TID 0000.0001)  ploadbar=  1.01076239587394E+05
 cg2d: Sum(rhs),rhsMax =  -1.02328839245226E+02  1.51176557662045E+00
(PID.TID 0000.0001)  ploadbar=  1.01074912643464E+05
 cg2d: Sum(rhs),rhsMax =  -1.02558510502689E+02  1.50824201749803E+00
(PID.TID 0000.0001)  ploadbar=  1.01073585699534E+05
 cg2d: Sum(rhs),rhsMax =  -1.02081182082658E+02  1.51514908570184E+00
(PID.TID 0000.0001)  ploadbar=  1.01072258755604E+05
 cg2d: Sum(rhs),rhsMax =  -1.01754479666878E+02  1.51989532941379E+00
(PID.TID 0000.0001)  ploadbar=  1.01071251530683E+05
 cg2d: Sum(rhs),rhsMax =  -1.01674698195294E+02  1.52099468124862E+00
(PID.TID 0000.0001)  ploadbar=  1.01070244305762E+05
 cg2d: Sum(rhs),rhsMax =  -1.01798905836001E+02  1.51906912023541E+00
(PID.TID 0000.0001)  ploadbar=  1.01069237080841E+05
 cg2d: Sum(rhs),rhsMax =  -1.01999183818303E+02  1.51603262474046E+00
(PID.TID 0000.0001)  ploadbar=  1.01068229855920E+05
 cg2d: Sum(rhs),rhsMax =  -1.02141726156207E+02  1.51387829491014E+00
(PID.TID 0000.0001)  ploadbar=  1.01067222630999E+05
 cg2d: Sum(rhs),rhsMax =  -1.02138366518469E+02  1.51390560998880E+00
(PID.TID 0000.0001)  ploadbar=  1.01066215406077E+05
 cg2d: Sum(rhs),rhsMax =  -1.01995788545669E+02  1.51596176766863E+00
(PID.TID 0000.0001)  ploadbar=  1.01064839522011E+05
 cg2d: Sum(rhs),rhsMax =  -1.01755885305732E+02  1.51943461008680E+00
(PID.TID 0000.0001)  ploadbar=  1.01063463637945E+05
 cg2d: Sum(rhs),rhsMax =  -1.01470413922729E+02  1.52356350953753E+00
(PID.TID 0000.0001)  ploadbar=  1.01062087753879E+05
 cg2d: Sum(rhs),rhsMax =  -1.01225364322015E+02  1.52705762113292E+00
(PID.TID 0000.0001)  ploadbar=  1.01060711869813E+05
 cg2d: Sum(rhs),rhsMax =  -1.01101679396932E+02  1.52867831252311E+00
(PID.TID 0000.0001)  ploadbar=  1.01059335985746E+05
 cg2d: Sum(rhs),rhsMax =  -9.82775675888216E+01  1.57229411944142E+00
(PID.TID 0000.0001)  ploadbar=  1.01057960101680E+05
 cg2d: Sum(rhs),rhsMax =  -9.57305958029507E+01  1.61383290827487E+00
(PID.TID 0000.0001)  ploadbar=  1.01057083543256E+05
 cg2d: Sum(rhs),rhsMax =  -9.36416376647912E+01  1.64955900363800E+00
(PID.TID 0000.0001)  ploadbar=  1.01056206984832E+05
 cg2d: Sum(rhs),rhsMax =  -9.19648859762204E+01  1.67937452912713E+00
(PID.TID 0000.0001)  ploadbar=  1.01055330426408E+05
 cg2d: Sum(rhs),rhsMax =  -9.06921551240916E+01  1.70269398648571E+00
(PID.TID 0000.0001)  ploadbar=  1.01054453867984E+05
 cg2d: Sum(rhs),rhsMax =  -8.97676234208725E+01  1.71999149116137E+00
(PID.TID 0000.0001)  ploadbar=  1.01053577309560E+05
 cg2d: Sum(rhs),rhsMax =  -8.91294711202500E+01  1.73207190184276E+00
(PID.TID 0000.0001)  ploadbar=  1.01052700751136E+05
 cg2d: Sum(rhs),rhsMax =  -8.88220312530263E+01  1.73784133109816E+00
(PID.TID 0000.0001)  ploadbar=  1.01053137811517E+05
 cg2d: Sum(rhs),rhsMax =  -8.86986432335631E+01  1.74003843580784E+00
(PID.TID 0000.0001)  ploadbar=  1.01053574871899E+05
 cg2d: Sum(rhs),rhsMax =  -8.86681242029906E+01  1.74042202544151E+00
(PID.TID 0000.0001)  ploadbar=  1.01054011932280E+05
 cg2d: Sum(rhs),rhsMax =  -8.87475010699532E+01  1.73864916889599E+00
(PID.TID 0000.0001)  ploadbar=  1.01054448992661E+05
 cg2d: Sum(rhs),rhsMax =  -8.89664714763559E+01  1.73415041897003E+00
(PID.TID 0000.0001)  ploadbar=  1.01054886053043E+05
 cg2d: Sum(rhs),rhsMax =  -8.93256275062730E+01  1.72695473627056E+00
(PID.TID 0000.0001)  ploadbar=  1.01055323113424E+05
 cg2d: Sum(rhs),rhsMax =  -8.97866607234128E+01  1.71791008130429E+00
(PID.TID 0000.0001)  ploadbar=  1.01055728141227E+05
 cg2d: Sum(rhs),rhsMax =  -9.03517981455889E+01  1.70702841250885E+00
(PID.TID 0000.0001)  ploadbar=  1.01056133169030E+05
 cg2d: Sum(rhs),rhsMax =  -9.09563725723219E+01  1.69558353622539E+00
(PID.TID 0000.0001)  ploadbar=  1.01056538196833E+05
 cg2d: Sum(rhs),rhsMax =  -9.15985021247035E+01  1.68363214608483E+00
(PID.TID 0000.0001)  ploadbar=  1.01056943224636E+05
 cg2d: Sum(rhs),rhsMax =  -9.22790736190413E+01  1.67118192494871E+00
(PID.TID 0000.0001)  ploadbar=  1.01057348252439E+05
 cg2d: Sum(rhs),rhsMax =  -9.29817030108636E+01  1.65854708337766E+00
(PID.TID 0000.0001)  ploadbar=  1.01057753280242E+05
 cg2d: Sum(rhs),rhsMax =  -9.37053572328519E+01  1.64572974022342E+00
(PID.TID 0000.0001)  ploadbar=  1.01058589965601E+05
 cg2d: Sum(rhs),rhsMax =  -9.45752778514012E+01  1.63057853925025E+00
(PID.TID 0000.0001)  ploadbar=  1.01059426650959E+05
 cg2d: Sum(rhs),rhsMax =  -9.57151094512850E+01  1.61113814306170E+00
(PID.TID 0000.0001)  ploadbar=  1.01060263336318E+05
 cg2d: Sum(rhs),rhsMax =  -9.68254738603727E+01  1.59262854735734E+00
(PID.TID 0000.0001)  ploadbar=  1.01061100021676E+05
 cg2d: Sum(rhs),rhsMax =  -9.78897847943781E+01  1.57526469673506E+00
(PID.TID 0000.0001)  ploadbar=  1.01061936707034E+05
 cg2d: Sum(rhs),rhsMax =  -9.88355406887952E+01  1.56012623771285E+00
(PID.TID 0000.0001)  ploadbar=  1.01062773392393E+05
 cg2d: Sum(rhs),rhsMax =  -9.97111816934178E+01  1.54638553601627E+00
(PID.TID 0000.0001)  ploadbar=  1.01063575913474E+05
 cg2d: Sum(rhs),rhsMax =  -1.00490498880871E+02  1.53437045933211E+00
(PID.TID 0000.0001)  ploadbar=  1.01064378434556E+05
 cg2d: Sum(rhs),rhsMax =  -1.01156147896322E+02  1.52426256312564E+00
(PID.TID 0000.0001)  ploadbar=  1.01065180955637E+05
 cg2d: Sum(rhs),rhsMax =  -1.01696422851136E+02  1.51616001057197E+00
(PID.TID 0000.0001)  ploadbar=  1.01065983476719E+05
 cg2d: Sum(rhs),rhsMax =  -1.02189845671665E+02  1.50883764443616E+00
(PID.TID 0000.0001)  ploadbar=  1.01066785997800E+05
 cg2d: Sum(rhs),rhsMax =  -1.02761791014207E+02  1.50043876507195E+00
(PID.TID 0000.0001)  ploadbar=  1.01067588518882E+05
 cg2d: Sum(rhs),rhsMax =  -1.03459669029704E+02  1.49032703102420E+00
(PID.TID 0000.0001)  ploadbar=  1.01069771228039E+05
 cg2d: Sum(rhs),rhsMax =  -1.04280283074164E+02  1.47861465191184E+00
(PID.TID 0000.0001)  ploadbar=  1.01071953937195E+05
 cg2d: Sum(rhs),rhsMax =  -1.05202161625014E+02  1.46567605594881E+00
(PID.TID 0000.0001)  ploadbar=  1.01074136646352E+05
 cg2d: Sum(rhs),rhsMax =  -1.06240356593451E+02  1.45136965146812E+00
(PID.TID 0000.0001)  ploadbar=  1.01076319355508E+05
 cg2d: Sum(rhs),rhsMax =  -1.07607527301038E+02  1.43294030882967E+00
(PID.TID 0000.0001)  ploadbar=  1.01078502064665E+05
 cg2d: Sum(rhs),rhsMax =  -1.09346788399048E+02  1.41014984215333E+00
(PID.TID 0000.0001)  ploadbar=  1.01080684773822E+05
 cg2d: Sum(rhs),rhsMax =  -1.11355923188692E+02  1.38474750973991E+00
(PID.TID 0000.0001)  ploadbar=  1.01082665736174E+05
 cg2d: Sum(rhs),rhsMax =  -1.13901865700322E+02  1.35387023774069E+00
(PID.TID 0000.0001)  ploadbar=  1.01084646698526E+05
 cg2d: Sum(rhs),rhsMax =  -1.16953560470578E+02  1.31864545269578E+00
(PID.TID 0000.0001)  ploadbar=  1.01086627660879E+05
 cg2d: Sum(rhs),rhsMax =  -1.20428774922088E+02  1.28071796459694E+00
(PID.TID 0000.0001)  ploadbar=  1.01088608623231E+05
 cg2d: Sum(rhs),rhsMax =  -1.20035982198244E+02  1.28505593379754E+00
(PID.TID 0000.0001)  ploadbar=  1.01090589585583E+05
 cg2d: Sum(rhs),rhsMax =  -1.18951130165551E+02  1.29694171774707E+00
(PID.TID 0000.0001)  ploadbar=  1.01092570547935E+05
 cg2d: Sum(rhs),rhsMax =  -1.18142757497626E+02  1.30597850468962E+00
(PID.TID 0000.0001)  ploadbar=  1.01094953647880E+05
 cg2d: Sum(rhs),rhsMax =  -1.17693692924971E+02  1.31111875477569E+00
(PID.TID 0000.0001)  ploadbar=  1.01097336747825E+05
 cg2d: Sum(rhs),rhsMax =  -1.17526410362777E+02  1.31313219934855E+00
(PID.TID 0000.0001)  ploadbar=  1.01099719847770E+05
 cg2d: Sum(rhs),rhsMax =  -1.17502630778182E+02  1.31353202616150E+00
(PID.TID 0000.0001)  ploadbar=  1.01102102947715E+05
 cg2d: Sum(rhs),rhsMax =  -1.16418275789420E+02  1.32588654393771E+00
(PID.TID 0000.0001)  ploadbar=  1.01104486047660E+05
 cg2d: Sum(rhs),rhsMax =  -1.14849483211057E+02  1.34409826941621E+00
(PID.TID 0000.0001)  ploadbar=  1.01106869147605E+05
 cg2d: Sum(rhs),rhsMax =  -1.13203767344362E+02  1.36376073522659E+00
(PID.TID 0000.0001)  ploadbar=  1.01107096269921E+05
 cg2d: Sum(rhs),rhsMax =  -1.11531709681647E+02  1.38434581437674E+00
(PID.TID 0000.0001)  ploadbar=  1.01107323392237E+05
 cg2d: Sum(rhs),rhsMax =  -1.09857121434219E+02  1.40560265892730E+00
(PID.TID 0000.0001)  ploadbar=  1.01107550514553E+05
 cg2d: Sum(rhs),rhsMax =  -1.08204957815041E+02  1.42723045473224E+00
(PID.TID 0000.0001)  ploadbar=  1.01107777636869E+05
 cg2d: Sum(rhs),rhsMax =  -1.06612095052391E+02  1.44872500154830E+00
(PID.TID 0000.0001)  ploadbar=  1.01108004759185E+05
 cg2d: Sum(rhs),rhsMax =  -1.05119207341676E+02  1.46947001473145E+00
(PID.TID 0000.0001)  ploadbar=  1.01108231881501E+05
 cg2d: Sum(rhs),rhsMax =  -1.03659058641841E+02  1.49033584384989E+00
(PID.TID 0000.0001)  ploadbar=  1.01107473926622E+05
 cg2d: Sum(rhs),rhsMax =  -1.02175762202663E+02  1.51213019821200E+00
(PID.TID 0000.0001)  ploadbar=  1.01106715971743E+05
 cg2d: Sum(rhs),rhsMax =  -1.00668489362666E+02  1.53491933704339E+00
(PID.TID 0000.0001)  ploadbar=  1.01105958016864E+05
 cg2d: Sum(rhs),rhsMax =  -9.91631502046685E+01  1.55835280454438E+00
(PID.TID 0000.0001)  ploadbar=  1.01105200061985E+05
 cg2d: Sum(rhs),rhsMax =  -9.76809092951328E+01  1.58211186733593E+00
(PID.TID 0000.0001)  ploadbar=  1.01104442107107E+05
 cg2d: Sum(rhs),rhsMax =  -9.62391443445496E+01  1.60589925485442E+00
(PID.TID 0000.0001)  ploadbar=  1.01103684152228E+05
 cg2d: Sum(rhs),rhsMax =  -9.48340620655526E+01  1.62982230657736E+00
(PID.TID 0000.0001)  ploadbar=  1.01103293558000E+05
 cg2d: Sum(rhs),rhsMax =  -9.34820400744511E+01  1.65356694415299E+00
(PID.TID 0000.0001)  ploadbar=  1.01102902963772E+05
 cg2d: Sum(rhs),rhsMax =  -9.22311343315097E+01  1.67620557192786E+00
(PID.TID 0000.0001)  ploadbar=  1.01102512369543E+05
 cg2d: Sum(rhs),rhsMax =  -9.11592833534577E+01  1.69616191078477E+00
(PID.TID 0000.0001)  ploadbar=  1.01102121775315E+05
 cg2d: Sum(rhs),rhsMax =  -9.03605461537824E+01  1.71143467451821E+00
(PID.TID 0000.0001)  ploadbar=  1.01101731181087E+05
 cg2d: Sum(rhs),rhsMax =  -8.99114094962450E+01  1.72029063178484E+00
(PID.TID 0000.0001)  ploadbar=  1.01101340586859E+05
 cg2d: Sum(rhs),rhsMax =  -8.99325972686326E+01  1.72017332186188E+00
(PID.TID 0000.0001)  ploadbar=  1.01100324242943E+05
 cg2d: Sum(rhs),rhsMax =  -9.03872839888120E+01  1.71178494137087E+00
(PID.TID 0000.0001)  ploadbar=  1.01099307899027E+05
 cg2d: Sum(rhs),rhsMax =  -9.10587090335744E+01  1.69939417910319E+00
(PID.TID 0000.0001)  ploadbar=  1.01098291555112E+05
 cg2d: Sum(rhs),rhsMax =  -9.17010955530964E+01  1.68767615711834E+00
(PID.TID 0000.0001)  ploadbar=  1.01097275211196E+05
 cg2d: Sum(rhs),rhsMax =  -9.23041414243281E+01  1.67678621756102E+00
(PID.TID 0000.0001)  ploadbar=  1.01096258867280E+05
 cg2d: Sum(rhs),rhsMax =  -9.29013657690330E+01  1.66608564376150E+00
(PID.TID 0000.0001)  ploadbar=  1.01095242523364E+05
 cg2d: Sum(rhs),rhsMax =  -9.34938712782807E+01  1.65562733107963E+00
(PID.TID 0000.0001)  ploadbar=  1.01094228134144E+05
 cg2d: Sum(rhs),rhsMax =  -9.40748277619966E+01  1.64551911700081E+00
(PID.TID 0000.0001)  ploadbar=  1.01093213744924E+05
 cg2d: Sum(rhs),rhsMax =  -9.43544783618723E+01  1.64076524128923E+00
(PID.TID 0000.0001)  ploadbar=  1.01092199355704E+05
 cg2d: Sum(rhs),rhsMax =  -9.30591195767605E+01  1.66372987732819E+00
(PID.TID 0000.0001)  ploadbar=  1.01091184966483E+05
 cg2d: Sum(rhs),rhsMax =  -9.19079618731455E+01  1.68468882095663E+00
(PID.TID 0000.0001)  ploadbar=  1.01090170577263E+05
 cg2d: Sum(rhs),rhsMax =  -9.09641133982753E+01  1.70227672674047E+00
(PID.TID 0000.0001)  ploadbar=  1.01089156188043E+05
 cg2d: Sum(rhs),rhsMax =  -9.01911679012081E+01  1.71694819820548E+00
(PID.TID 0000.0001)  ploadbar=  1.01087888161960E+05
 cg2d: Sum(rhs),rhsMax =  -8.95571955224029E+01  1.72915886237448E+00
(PID.TID 0000.0001)  ploadbar=  1.01086620135877E+05
 cg2d: Sum(rhs),rhsMax =  -8.90404388652343E+01  1.73921889883419E+00
(PID.TID 0000.0001)  ploadbar=  1.01085352109794E+05
 cg2d: Sum(rhs),rhsMax =  -8.86180054118271E+01  1.74749859430654E+00
(PID.TID 0000.0001)  ploadbar=  1.01084084083711E+05
 cg2d: Sum(rhs),rhsMax =  -8.82675197688149E+01  1.75438900313195E+00
(PID.TID 0000.0001)  ploadbar=  1.01082816057628E+05
 cg2d: Sum(rhs),rhsMax =  -8.79682654803657E+01  1.76026973516955E+00
(PID.TID 0000.0001)  ploadbar=  1.01081548031545E+05
 cg2d: Sum(rhs),rhsMax =  -8.77130517994440E+01  1.76535360577940E+00
(PID.TID 0000.0001)  ploadbar=  1.01081315833012E+05
 cg2d: Sum(rhs),rhsMax =  -8.74857016456387E+01  1.76994945818698E+00
(PID.TID 0000.0001)  ploadbar=  1.01081083634479E+05
 cg2d: Sum(rhs),rhsMax =  -8.72828707152030E+01  1.77411407339075E+00
(PID.TID 0000.0001)  ploadbar=  1.01080851435946E+05
 cg2d: Sum(rhs),rhsMax =  -8.71182936830164E+01  1.77755259749171E+00
(PID.TID 0000.0001)  ploadbar=  1.01080619237413E+05
 cg2d: Sum(rhs),rhsMax =  -8.70068058635985E+01  1.77994867649243E+00
(PID.TID 0000.0001)  ploadbar=  1.01080387038880E+05
 cg2d: Sum(rhs),rhsMax =  -8.69681277111519E+01  1.78088235514301E+00
(PID.TID 0000.0001)  ploadbar=  1.01080154840347E+05
 cg2d: Sum(rhs),rhsMax =  -8.70276949295036E+01  1.77980730915272E+00
(PID.TID 0000.0001)  ploadbar=  1.01079870038218E+05
 cg2d: Sum(rhs),rhsMax =  -8.72186453880366E+01  1.77605281358011E+00
(PID.TID 0000.0001)  ploadbar=  1.01079585236089E+05
 cg2d: Sum(rhs),rhsMax =  -8.75332637012234E+01  1.76980503003861E+00
(PID.TID 0000.0001)  ploadbar=  1.01079300433960E+05
 cg2d: Sum(rhs),rhsMax =  -8.79458550738623E+01  1.76162675787711E+00
(PID.TID 0000.0001)  ploadbar=  1.01079015631832E+05
 cg2d: Sum(rhs),rhsMax =  -8.84348549301241E+01  1.75199488529619E+00
(PID.TID 0000.0001)  ploadbar=  1.01078730829703E+05
 cg2d: Sum(rhs),rhsMax =  -8.79109055324654E+01  1.76252623701326E+00
(PID.TID 0000.0001)  ploadbar=  1.01078446027574E+05
 cg2d: Sum(rhs),rhsMax =  -8.75632754622396E+01  1.76962988343895E+00
(PID.TID 0000.0001)  ploadbar=  1.01077352045043E+05
 cg2d: Sum(rhs),rhsMax =  -8.73127292721066E+01  1.77482798741868E+00
(PID.TID 0000.0001)  ploadbar=  1.01076258062513E+05
 cg2d: Sum(rhs),rhsMax =  -8.70735619211525E+01  1.77983200009121E+00
(PID.TID 0000.0001)  ploadbar=  1.01075164079982E+05
 cg2d: Sum(rhs),rhsMax =  -8.67049581790291E+01  1.78753082969759E+00
(PID.TID 0000.0001)  ploadbar=  1.01074070097451E+05
 cg2d: Sum(rhs),rhsMax =  -8.65545396917986E+01  1.79076749057698E+00
(PID.TID 0000.0001)  ploadbar=  1.01072976114921E+05
 cg2d: Sum(rhs),rhsMax =  -8.68543227015158E+01  1.78470734790079E+00
(PID.TID 0000.0001)  ploadbar=  1.01071882132390E+05
 cg2d: Sum(rhs),rhsMax =  -8.69946989861425E+01  1.78190101711037E+00
(PID.TID 0000.0001)  ploadbar=  1.01071417516979E+05
 cg2d: Sum(rhs),rhsMax =  -8.71103825180935E+01  1.77955946870215E+00
(PID.TID 0000.0001)  ploadbar=  1.01070952901568E+05
 cg2d: Sum(rhs),rhsMax =  -8.72040370517916E+01  1.77762258642607E+00
(PID.TID 0000.0001)  ploadbar=  1.01070488286158E+05
 cg2d: Sum(rhs),rhsMax =  -8.72909197539002E+01  1.77577458881301E+00
(PID.TID 0000.0001)  ploadbar=  1.01070023670747E+05
 cg2d: Sum(rhs),rhsMax =  -8.73895177766371E+01  1.77363861615499E+00
(PID.TID 0000.0001)  ploadbar=  1.01069559055336E+05
 cg2d: Sum(rhs),rhsMax =  -8.74850320204297E+01  1.77151458221152E+00
(PID.TID 0000.0001)  ploadbar=  1.01069094439925E+05
 cg2d: Sum(rhs),rhsMax =  -8.76023905835667E+01  1.76901329704238E+00
(PID.TID 0000.0001)  ploadbar=  1.01068007170967E+05
 cg2d: Sum(rhs),rhsMax =  -8.77982150744258E+01  1.76499484823606E+00
(PID.TID 0000.0001)  ploadbar=  1.01066919902008E+05
 cg2d: Sum(rhs),rhsMax =  -8.80463571663991E+01  1.75999836376890E+00
(PID.TID 0000.0001)  ploadbar=  1.01065832633050E+05
 cg2d: Sum(rhs),rhsMax =  -8.83442761178454E+01  1.75408592346368E+00
(PID.TID 0000.0001)  ploadbar=  1.01064745364091E+05
 cg2d: Sum(rhs),rhsMax =  -8.87053495548248E+01  1.74700886869292E+00
(PID.TID 0000.0001)  ploadbar=  1.01063658095133E+05
 cg2d: Sum(rhs),rhsMax =  -8.91007971342740E+01  1.73935456600381E+00
(PID.TID 0000.0001)  ploadbar=  1.01062570826175E+05
 cg2d: Sum(rhs),rhsMax =  -8.93359792027756E+01  1.73489089610485E+00
(PID.TID 0000.0001)  ploadbar=  1.01061999676642E+05
 cg2d: Sum(rhs),rhsMax =  -8.94635738528603E+01  1.73254387366220E+00
(PID.TID 0000.0001)  ploadbar=  1.01061428527109E+05
 cg2d: Sum(rhs),rhsMax =  -8.95321556325261E+01  1.73134872724131E+00
(PID.TID 0000.0001)  ploadbar=  1.01060857377576E+05
 cg2d: Sum(rhs),rhsMax =  -8.95838354306134E+01  1.73048140663014E+00
(PID.TID 0000.0001)  ploadbar=  1.01060286228043E+05
 cg2d: Sum(rhs),rhsMax =  -8.96225073559387E+01  1.72986027727866E+00
(PID.TID 0000.0001)  ploadbar=  1.01059715078510E+05
 cg2d: Sum(rhs),rhsMax =  -8.96494490906556E+01  1.72945684233565E+00
(PID.TID 0000.0001)  ploadbar=  1.01059143928977E+05
 cg2d: Sum(rhs),rhsMax =  -8.97129480196499E+01  1.72832651809086E+00
(PID.TID 0000.0001)  ploadbar=  1.01058081444773E+05
 cg2d: Sum(rhs),rhsMax =  -8.97655998374415E+01  1.72738054142039E+00
(PID.TID 0000.0001)  ploadbar=  1.01057018960570E+05
 cg2d: Sum(rhs),rhsMax =  -8.98194248179602E+01  1.72638307335622E+00
(PID.TID 0000.0001)  ploadbar=  1.01055956476367E+05
 cg2d: Sum(rhs),rhsMax =  -8.98851294466616E+01  1.72512318100262E+00
(PID.TID 0000.0001)  ploadbar=  1.01054893992164E+05
 cg2d: Sum(rhs),rhsMax =  -8.99647652235321E+01  1.72355801442943E+00
(PID.TID 0000.0001)  ploadbar=  1.01053831507961E+05
 cg2d: Sum(rhs),rhsMax =  -9.00572503770347E+01  1.72170451580499E+00
(PID.TID 0000.0001)  ploadbar=  1.01052769023758E+05
 cg2d: Sum(rhs),rhsMax =  -9.01971169219630E+01  1.71894329872923E+00
(PID.TID 0000.0001)  ploadbar=  1.01052717604141E+05
 cg2d: Sum(rhs),rhsMax =  -9.03427301629125E+01  1.71607086577000E+00
(PID.TID 0000.0001)  ploadbar=  1.01052666184525E+05
 cg2d: Sum(rhs),rhsMax =  -9.04923755549849E+01  1.71312015255936E+00
(PID.TID 0000.0001)  ploadbar=  1.01052614764909E+05
 cg2d: Sum(rhs),rhsMax =  -9.06449019096383E+01  1.71011051233868E+00
(PID.TID 0000.0001)  ploadbar=  1.01052563345292E+05
 cg2d: Sum(rhs),rhsMax =  -9.08018523008961E+01  1.70700926118902E+00
(PID.TID 0000.0001)  ploadbar=  1.01052511925676E+05
 cg2d: Sum(rhs),rhsMax =  -9.09449701168791E+01  1.70415596097211E+00
(PID.TID 0000.0001)  ploadbar=  1.01052460506060E+05
 cg2d: Sum(rhs),rhsMax =  -9.10787346921141E+01  1.70154565349801E+00
(PID.TID 0000.0001)  ploadbar=  1.01054453376066E+05
 cg2d: Sum(rhs),rhsMax =  -9.12006709619091E+01  1.69921649888803E+00
(PID.TID 0000.0001)  ploadbar=  1.01056446246072E+05
 cg2d: Sum(rhs),rhsMax =  -9.12869153349661E+01  1.69760420863020E+00
(PID.TID 0000.0001)  ploadbar=  1.01058439116078E+05
 cg2d: Sum(rhs),rhsMax =  -9.13374695870154E+01  1.69669544230098E+00
(PID.TID 0000.0001)  ploadbar=  1.01060431986084E+05
 cg2d: Sum(rhs),rhsMax =  -9.13626329665676E+01  1.69628783295917E+00
(PID.TID 0000.0001)  ploadbar=  1.01062424856091E+05
 cg2d: Sum(rhs),rhsMax =  -9.13687034986200E+01  1.69625723197547E+00
(PID.TID 0000.0001)  ploadbar=  1.01064417726097E+05
 cg2d: Sum(rhs),rhsMax =  -9.13287705231757E+01  1.69708844928449E+00
(PID.TID 0000.0001)  ploadbar=  1.01065280003619E+05
 cg2d: Sum(rhs),rhsMax =  -9.12812493551345E+01  1.69806473110305E+00
(PID.TID 0000.0001)  ploadbar=  1.01066142281142E+05
 cg2d: Sum(rhs),rhsMax =  -9.12585405605525E+01  1.69857912778470E+00
(PID.TID 0000.0001)  ploadbar=  1.01067004558664E+05
 cg2d: Sum(rhs),rhsMax =  -9.12571619942238E+01  1.69868991630538E+00
(PID.TID 0000.0001)  ploadbar=  1.01067866836187E+05
 cg2d: Sum(rhs),rhsMax =  -9.12759828930724E+01  1.69841433475444E+00
(PID.TID 0000.0001)  ploadbar=  1.01068729113709E+05
 cg2d: Sum(rhs),rhsMax =  -9.13196456318176E+01  1.69766304464086E+00
(PID.TID 0000.0001)  ploadbar=  1.01069591391232E+05
 cg2d: Sum(rhs),rhsMax =  -9.13653938829340E+01  1.69688161493736E+00
(PID.TID 0000.0001)  ploadbar=  1.01070256067290E+05
 cg2d: Sum(rhs),rhsMax =  -9.14327739873613E+01  1.69570386458509E+00
(PID.TID 0000.0001)  ploadbar=  1.01070920743348E+05
 cg2d: Sum(rhs),rhsMax =  -9.15144547892070E+01  1.69426398868134E+00
(PID.TID 0000.0001)  ploadbar=  1.01071585419406E+05
 cg2d: Sum(rhs),rhsMax =  -9.16089819337961E+01  1.69258503905450E+00
(PID.TID 0000.0001)  ploadbar=  1.01072250095464E+05
 cg2d: Sum(rhs),rhsMax =  -9.17123465042122E+01  1.69073853162654E+00
(PID.TID 0000.0001)  ploadbar=  1.01072914771522E+05
 cg2d: Sum(rhs),rhsMax =  -9.18234821396489E+01  1.68873999825524E+00
(PID.TID 0000.0001)  ploadbar=  1.01073579447580E+05
 cg2d: Sum(rhs),rhsMax =  -9.19189390483982E+01  1.68701252017802E+00
(PID.TID 0000.0001)  ploadbar=  1.01073995447196E+05
 cg2d: Sum(rhs),rhsMax =  -9.20254069128533E+01  1.68506355303498E+00
(PID.TID 0000.0001)  ploadbar=  1.01074411446812E+05
 cg2d: Sum(rhs),rhsMax =  -9.21351071205014E+01  1.68303407418722E+00
(PID.TID 0000.0001)  ploadbar=  1.01074827446428E+05
 cg2d: Sum(rhs),rhsMax =  -9.22466642897067E+01  1.68094767983591E+00
(PID.TID 0000.0001)  ploadbar=  1.01075243446045E+05
 cg2d: Sum(rhs),rhsMax =  -9.23606709852012E+01  1.67879232099240E+00
(PID.TID 0000.0001)  ploadbar=  1.01075659445661E+05
 cg2d: Sum(rhs),rhsMax =  -9.24770057123229E+01  1.67656968783693E+00
(PID.TID 0000.0001)  ploadbar=  1.01076075445277E+05
 cg2d: Sum(rhs),rhsMax =  -9.25601299099771E+01  1.67499369798225E+00
(PID.TID 0000.0001)  ploadbar=  1.01076238289868E+05
 cg2d: Sum(rhs),rhsMax =  -9.26450126070561E+01  1.67342580900888E+00
(PID.TID 0000.0001)  ploadbar=  1.01076401134460E+05
 cg2d: Sum(rhs),rhsMax =  -9.27359078513430E+01  1.67178372537190E+00
(PID.TID 0000.0001)  ploadbar=  1.01076563979051E+05
 cg2d: Sum(rhs),rhsMax =  -9.28296842281925E+01  1.67011302792533E+00
(PID.TID 0000.0001)  ploadbar=  1.01076726823643E+05
 cg2d: Sum(rhs),rhsMax =  -9.29317583603265E+01  1.66830931604771E+00
(PID.TID 0000.0001)  ploadbar=  1.01076889668234E+05
 cg2d: Sum(rhs),rhsMax =  -9.30492606603767E+01  1.66624045029249E+00
(PID.TID 0000.0001)  ploadbar=  1.01077052512826E+05
 cg2d: Sum(rhs),rhsMax =  -9.31833526926640E+01  1.66385927316537E+00
(PID.TID 0000.0001)  ploadbar=  1.01077283145712E+05
 cg2d: Sum(rhs),rhsMax =  -9.33755730163169E+01  1.66042237368067E+00
(PID.TID 0000.0001)  ploadbar=  1.01077513778599E+05
 cg2d: Sum(rhs),rhsMax =  -9.35927068665866E+01  1.65652495136700E+00
(PID.TID 0000.0001)  ploadbar=  1.01077744411486E+05
 cg2d: Sum(rhs),rhsMax =  -9.38850183064482E+01  1.65128612051968E+00
(PID.TID 0000.0001)  ploadbar=  1.01077975044373E+05
 cg2d: Sum(rhs),rhsMax =  -9.42498742725990E+01  1.64477199392973E+00
(PID.TID 0000.0001)  ploadbar=  1.01078205677260E+05
 cg2d: Sum(rhs),rhsMax =  -9.46776924799664E+01  1.63717452714667E+00
(PID.TID 0000.0001)  ploadbar=  1.01078436310146E+05
 cg2d: Sum(rhs),rhsMax =  -9.51565831163386E+01  1.62878170735646E+00
(PID.TID 0000.0001)  ploadbar=  1.01078920437520E+05
 cg2d: Sum(rhs),rhsMax =  -9.56657385067840E+01  1.61996778960543E+00
(PID.TID 0000.0001)  ploadbar=  1.01079404564894E+05
 cg2d: Sum(rhs),rhsMax =  -9.61912942149480E+01  1.61097576448671E+00
(PID.TID 0000.0001)  ploadbar=  1.01079888692268E+05
 cg2d: Sum(rhs),rhsMax =  -9.67329678435024E+01  1.60181471421177E+00
(PID.TID 0000.0001)  ploadbar=  1.01080372819642E+05
 cg2d: Sum(rhs),rhsMax =  -9.72679219356539E+01  1.59285955725180E+00
(PID.TID 0000.0001)  ploadbar=  1.01080856947016E+05
 cg2d: Sum(rhs),rhsMax =  -9.77743638157325E+01  1.58445181418725E+00
(PID.TID 0000.0001)  ploadbar=  1.01081341074390E+05
 cg2d: Sum(rhs),rhsMax =  -9.82362292382486E+01  1.57681476077865E+00
(PID.TID 0000.0001)  ploadbar=  1.01081870710104E+05
 cg2d: Sum(rhs),rhsMax =  -9.86526250201698E+01  1.56993796548935E+00
(PID.TID 0000.0001)  ploadbar=  1.01082400345818E+05
 cg2d: Sum(rhs),rhsMax =  -9.89799657586852E+01  1.56448810154014E+00
(PID.TID 0000.0001)  ploadbar=  1.01082929981531E+05
 cg2d: Sum(rhs),rhsMax =  -9.92184945416790E+01  1.56042929709904E+00
(PID.TID 0000.0001)  ploadbar=  1.01083459617245E+05
 cg2d: Sum(rhs),rhsMax =  -9.93647405606769E+01  1.55779185747248E+00
(PID.TID 0000.0001)  ploadbar=  1.01083989252958E+05
 cg2d: Sum(rhs),rhsMax =  -9.94270339628690E+01  1.55643013362572E+00
(PID.TID 0000.0001)  ploadbar=  1.01084518888672E+05
 cg2d: Sum(rhs),rhsMax =  -9.94886176487304E+01  1.55511923179703E+00
(PID.TID 0000.0001)  ploadbar=  1.01085528399222E+05
 cg2d: Sum(rhs),rhsMax =  -9.95181159481100E+01  1.55434558659451E+00
(PID.TID 0000.0001)  ploadbar=  1.01086537909772E+05
 cg2d: Sum(rhs),rhsMax =  -9.95490305106086E+01  1.55357957259767E+00
(PID.TID 0000.0001)  ploadbar=  1.01087547420322E+05
 cg2d: Sum(rhs),rhsMax =  -9.96126500334608E+01  1.55232274559320E+00
(PID.TID 0000.0001)  ploadbar=  1.01088556930871E+05
 cg2d: Sum(rhs),rhsMax =  -9.97488354089253E+01  1.54994938705656E+00
(PID.TID 0000.0001)  ploadbar=  1.01089566441421E+05
 cg2d: Sum(rhs),rhsMax =  -9.95676503716608E+01  1.55252300092770E+00
(PID.TID 0000.0001)  ploadbar=  1.01090575951971E+05
 cg2d: Sum(rhs),rhsMax =  -9.95308480134334E+01  1.55285778693473E+00
(PID.TID 0000.0001)  ploadbar=  1.01089720497563E+05
 cg2d: Sum(rhs),rhsMax =  -9.96778541630041E+01  1.55033360387162E+00
(PID.TID 0000.0001)  ploadbar=  1.01088865043155E+05
 cg2d: Sum(rhs),rhsMax =  -9.97937142344335E+01  1.54829910112903E+00
(PID.TID 0000.0001)  ploadbar=  1.01088009588747E+05
 cg2d: Sum(rhs),rhsMax =  -9.99365596163588E+01  1.54584812388998E+00
(PID.TID 0000.0001)  ploadbar=  1.01087154134339E+05
 cg2d: Sum(rhs),rhsMax =  -1.00086633654550E+02  1.54328555285024E+00
(PID.TID 0000.0001)  ploadbar=  1.01086298679931E+05
 cg2d: Sum(rhs),rhsMax =  -1.00227829725051E+02  1.54085410933669E+00
(PID.TID 0000.0001)  ploadbar=  1.01085443225522E+05
 cg2d: Sum(rhs),rhsMax =  -1.00421331966564E+02  1.53763490118774E+00
(PID.TID 0000.0001)  ploadbar=  1.01085818707880E+05
 cg2d: Sum(rhs),rhsMax =  -1.00626659863145E+02  1.53425068548841E+00
(PID.TID 0000.0001)  ploadbar=  1.01086194190238E+05
 cg2d: Sum(rhs),rhsMax =  -1.00853114353456E+02  1.53055884531462E+00
(PID.TID 0000.0001)  ploadbar=  1.01086569672595E+05
 cg2d: Sum(rhs),rhsMax =  -1.01115309755505E+02  1.52633797424209E+00
(PID.TID 0000.0001)  ploadbar=  1.01086945154953E+05
 cg2d: Sum(rhs),rhsMax =  -1.01420541675339E+02  1.52148360032707E+00
(PID.TID 0000.0001)  ploadbar=  1.01087320637311E+05
 cg2d: Sum(rhs),rhsMax =  -1.01766471731463E+02  1.51603742787943E+00
(PID.TID 0000.0001)  ploadbar=  1.01087696119668E+05
 cg2d: Sum(rhs),rhsMax =  -1.02192727319243E+02  1.50942553052762E+00
(PID.TID 0000.0001)  ploadbar=  1.01088959518954E+05
 cg2d: Sum(rhs),rhsMax =  -1.02655817054506E+02  1.50231147686121E+00
(PID.TID 0000.0001)  ploadbar=  1.01090222918240E+05
 cg2d: Sum(rhs),rhsMax =  -1.03125134057618E+02  1.49515063714487E+00
(PID.TID 0000.0001)  ploadbar=  1.01091486317526E+05
 cg2d: Sum(rhs),rhsMax =  -1.03577727285543E+02  1.48827230145427E+00
(PID.TID 0000.0001)  ploadbar=  1.01092749716812E+05
 cg2d: Sum(rhs),rhsMax =  -1.03996805450414E+02  1.48190635066050E+00
(PID.TID 0000.0001)  ploadbar=  1.01094013116098E+05
 cg2d: Sum(rhs),rhsMax =  -1.04370861687063E+02  1.47620028277469E+00
(PID.TID 0000.0001)  ploadbar=  1.01095276515384E+05
 cg2d: Sum(rhs),rhsMax =  -1.04731390241025E+02  1.47077175891471E+00
(PID.TID 0000.0001)  ploadbar=  1.01095807395800E+05
 cg2d: Sum(rhs),rhsMax =  -1.05041336414456E+02  1.46612846121482E+00
(PID.TID 0000.0001)  ploadbar=  1.01096338276217E+05
 cg2d: Sum(rhs),rhsMax =  -1.05307393839128E+02  1.46215937574935E+00
(PID.TID 0000.0001)  ploadbar=  1.01096869156634E+05
 cg2d: Sum(rhs),rhsMax =  -1.05530362847873E+02  1.45883871594407E+00
(PID.TID 0000.0001)  ploadbar=  1.01097400037050E+05
 cg2d: Sum(rhs),rhsMax =  -1.05720412504207E+02  1.45601663705254E+00
(PID.TID 0000.0001)  ploadbar=  1.01097930917467E+05
 cg2d: Sum(rhs),rhsMax =  -1.05893397235781E+02  1.45346490231641E+00
(PID.TID 0000.0001)  ploadbar=  1.01098461797884E+05
 cg2d: Sum(rhs),rhsMax =  -1.06126810978319E+02  1.45010833467088E+00
(PID.TID 0000.0001)  ploadbar=  1.01098579509595E+05
 cg2d: Sum(rhs),rhsMax =  -1.06415893588880E+02  1.44601909551011E+00
(PID.TID 0000.0001)  ploadbar=  1.01098697221307E+05
 cg2d: Sum(rhs),rhsMax =  -1.06801133786372E+02  1.44065818202530E+00
(PID.TID 0000.0001)  ploadbar=  1.01098814933018E+05
 cg2d: Sum(rhs),rhsMax =  -1.07295425319993E+02  1.43387765049293E+00
(PID.TID 0000.0001)  ploadbar=  1.01098932644730E+05
 cg2d: Sum(rhs),rhsMax =  -1.07894624224051E+02  1.42576961567020E+00
(PID.TID 0000.0001)  ploadbar=  1.01099050356441E+05
 cg2d: Sum(rhs),rhsMax =  -1.08659598092433E+02  1.41558094994530E+00
(PID.TID 0000.0001)  ploadbar=  1.01099168068153E+05
 cg2d: Sum(rhs),rhsMax =  -1.09608456866233E+02  1.40316905954753E+00
(PID.TID 0000.0001)  ploadbar=  1.01099116729285E+05
 cg2d: Sum(rhs),rhsMax =  -1.10806258209544E+02  1.38783476232003E+00
(PID.TID 0000.0001)  ploadbar=  1.01099065390417E+05
 cg2d: Sum(rhs),rhsMax =  -1.12198581148838E+02  1.37043516241954E+00
(PID.TID 0000.0001)  ploadbar=  1.01099014051548E+05
 cg2d: Sum(rhs),rhsMax =  -1.13786560316401E+02  1.35111733958865E+00
(PID.TID 0000.0001)  ploadbar=  1.01098962712680E+05
 cg2d: Sum(rhs),rhsMax =  -1.15565893110679E+02  1.33010382525936E+00
(PID.TID 0000.0001)  ploadbar=  1.01098911373812E+05
 cg2d: Sum(rhs),rhsMax =  -1.17511700938353E+02  1.30784700524117E+00
(PID.TID 0000.0001)  ploadbar=  1.01098860034944E+05
 cg2d: Sum(rhs),rhsMax =  -1.19469861000915E+02  1.28616882580673E+00
(PID.TID 0000.0001)  ploadbar=  1.01098438579943E+05
 cg2d: Sum(rhs),rhsMax =  -1.21521097651149E+02  1.26420630905652E+00
(PID.TID 0000.0001)  ploadbar=  1.01098017124942E+05
 cg2d: Sum(rhs),rhsMax =  -1.23620639846947E+02  1.24247087452078E+00
(PID.TID 0000.0001)  ploadbar=  1.01097595669941E+05
 cg2d: Sum(rhs),rhsMax =  -1.25768712102999E+02  1.22097140468150E+00
(PID.TID 0000.0001)  ploadbar=  1.01097174214940E+05
 cg2d: Sum(rhs),rhsMax =  -1.27961265118104E+02  1.19975575258546E+00
(PID.TID 0000.0001)  ploadbar=  1.01096752759939E+05
 cg2d: Sum(rhs),rhsMax =  -1.30158290407923E+02  1.17919118178890E+00
(PID.TID 0000.0001)  ploadbar=  1.01096331304938E+05
 cg2d: Sum(rhs),rhsMax =  -1.32184104752482E+02  1.16084640841708E+00
(PID.TID 0000.0001)  ploadbar=  1.01096592513568E+05
 cg2d: Sum(rhs),rhsMax =  -1.33981544451114E+02  1.14503488557546E+00
(PID.TID 0000.0001)  ploadbar=  1.01096853722198E+05
 cg2d: Sum(rhs),rhsMax =  -1.35450615151208E+02  1.13241108007467E+00
(PID.TID 0000.0001)  ploadbar=  1.01097114930828E+05
 cg2d: Sum(rhs),rhsMax =  -1.36549961197265E+02  1.12311856778563E+00
(PID.TID 0000.0001)  ploadbar=  1.01097376139458E+05
 cg2d: Sum(rhs),rhsMax =  -1.37250775691713E+02  1.11723081220684E+00
(PID.TID 0000.0001)  ploadbar=  1.01097637348087E+05
 cg2d: Sum(rhs),rhsMax =  -1.37536542898768E+02  1.11477663037004E+00
(PID.TID 0000.0001)  ploadbar=  1.01097898556717E+05
 cg2d: Sum(rhs),rhsMax =  -1.36682401039555E+02  1.12159865973343E+00
(PID.TID 0000.0001)  ploadbar=  1.01097745152400E+05
 cg2d: Sum(rhs),rhsMax =  -1.35963479493079E+02  1.12737022531866E+00
(PID.TID 0000.0001)  ploadbar=  1.01097591748082E+05
 cg2d: Sum(rhs),rhsMax =  -1.35918435555255E+02  1.12756819412349E+00
(PID.TID 0000.0001)  ploadbar=  1.01097438343765E+05
 cg2d: Sum(rhs),rhsMax =  -1.36142809543266E+02  1.12551646767120E+00
(PID.TID 0000.0001)  ploadbar=  1.01097284939448E+05
 cg2d: Sum(rhs),rhsMax =  -1.36019733323038E+02  1.12632058046425E+00
(PID.TID 0000.0001)  ploadbar=  1.01097131535130E+05
 cg2d: Sum(rhs),rhsMax =  -1.35749001442215E+02  1.12832741673610E+00
(PID.TID 0000.0001)  ploadbar=  1.01096978130813E+05
 cg2d: Sum(rhs),rhsMax =  -1.33217885473066E+02  1.14952888402511E+00
(PID.TID 0000.0001)  ploadbar=  1.01097030764183E+05
 cg2d: Sum(rhs),rhsMax =  -1.29880036727119E+02  1.17883307844606E+00
(PID.TID 0000.0001)  ploadbar=  1.01097083397553E+05
 cg2d: Sum(rhs),rhsMax =  -1.26591891042501E+02  1.20921001631139E+00
(PID.TID 0000.0001)  ploadbar=  1.01097136030923E+05
 cg2d: Sum(rhs),rhsMax =  -1.23531068828514E+02  1.23892105970577E+00
(PID.TID 0000.0001)  ploadbar=  1.01097188664293E+05
 cg2d: Sum(rhs),rhsMax =  -1.20987198598642E+02  1.26470949657740E+00
(PID.TID 0000.0001)  ploadbar=  1.01097241297663E+05
 cg2d: Sum(rhs),rhsMax =  -1.18719543019569E+02  1.28859062795384E+00
(PID.TID 0000.0001)  ploadbar=  1.01097293931033E+05
 cg2d: Sum(rhs),rhsMax =  -1.16909678436428E+02  1.30825580672910E+00
(PID.TID 0000.0001)  ploadbar=  1.01097405293372E+05
 cg2d: Sum(rhs),rhsMax =  -1.15005241088675E+02  1.32962688737470E+00
(PID.TID 0000.0001)  ploadbar=  1.01097516655711E+05
 cg2d: Sum(rhs),rhsMax =  -1.13136729951022E+02  1.35128159746278E+00
(PID.TID 0000.0001)  ploadbar=  1.01097628018049E+05
 cg2d: Sum(rhs),rhsMax =  -1.11358012567332E+02  1.37254718882630E+00
(PID.TID 0000.0001)  ploadbar=  1.01097739380388E+05
 cg2d: Sum(rhs),rhsMax =  -1.09678279391359E+02  1.39323280438880E+00
(PID.TID 0000.0001)  ploadbar=  1.01097850742727E+05
 cg2d: Sum(rhs),rhsMax =  -1.08095131019223E+02  1.41328040571814E+00
(PID.TID 0000.0001)  ploadbar=  1.01097962105066E+05
 cg2d: Sum(rhs),rhsMax =  -1.06393796215837E+02  1.43557193385450E+00
(PID.TID 0000.0001)  ploadbar=  1.01098225304882E+05
 cg2d: Sum(rhs),rhsMax =  -1.04695422241228E+02  1.45859868963576E+00
(PID.TID 0000.0001)  ploadbar=  1.01098488504698E+05
 cg2d: Sum(rhs),rhsMax =  -1.03039935582997E+02  1.48181250436933E+00
(PID.TID 0000.0001)  ploadbar=  1.01098751704514E+05
 cg2d: Sum(rhs),rhsMax =  -1.01428235437727E+02  1.50517278986530E+00
(PID.TID 0000.0001)  ploadbar=  1.01099014904330E+05
 cg2d: Sum(rhs),rhsMax =  -9.98459623745929E+01  1.52887012691953E+00
(PID.TID 0000.0001)  ploadbar=  1.01099278104146E+05
 cg2d: Sum(rhs),rhsMax =  -9.83033246379057E+01  1.55273230059206E+00
(PID.TID 0000.0001)  ploadbar=  1.01099541303961E+05
 cg2d: Sum(rhs),rhsMax =  -9.68841083636431E+01  1.57534396876926E+00
(PID.TID 0000.0001)  ploadbar=  1.01100018911369E+05
 cg2d: Sum(rhs),rhsMax =  -9.56593524392796E+01  1.59537683789123E+00
(PID.TID 0000.0001)  ploadbar=  1.01100496518776E+05
 cg2d: Sum(rhs),rhsMax =  -9.46515426827800E+01  1.61222301295378E+00
(PID.TID 0000.0001)  ploadbar=  1.01100974126184E+05
 cg2d: Sum(rhs),rhsMax =  -9.38327883617570E+01  1.62614459608084E+00
(PID.TID 0000.0001)  ploadbar=  1.01101451733591E+05
 cg2d: Sum(rhs),rhsMax =  -9.31910375525104E+01  1.63718689550696E+00
(PID.TID 0000.0001)  ploadbar=  1.01101929340998E+05
 cg2d: Sum(rhs),rhsMax =  -9.27151614405361E+01  1.64541739075058E+00
(PID.TID 0000.0001)  ploadbar=  1.01102406948406E+05
 cg2d: Sum(rhs),rhsMax =  -9.26490299285264E+01  1.64641119354985E+00
(PID.TID 0000.0001)  ploadbar=  1.01103175578019E+05
 cg2d: Sum(rhs),rhsMax =  -9.26990190985316E+01  1.64532955665491E+00
(PID.TID 0000.0001)  ploadbar=  1.01103944207633E+05
 cg2d: Sum(rhs),rhsMax =  -9.28344963893266E+01  1.64271946737513E+00
(PID.TID 0000.0001)  ploadbar=  1.01104712837247E+05
 cg2d: Sum(rhs),rhsMax =  -9.30513393949756E+01  1.63866450780699E+00
(PID.TID 0000.0001)  ploadbar=  1.01105481466860E+05
 cg2d: Sum(rhs),rhsMax =  -9.33302775138639E+01  1.63352052904905E+00
(PID.TID 0000.0001)  ploadbar=  1.01106250096474E+05
 cg2d: Sum(rhs),rhsMax =  -9.36483719322526E+01  1.62770383445438E+00
(PID.TID 0000.0001)  ploadbar=  1.01107018726088E+05
 cg2d: Sum(rhs),rhsMax =  -9.39657760764038E+01  1.62193912878476E+00
(PID.TID 0000.0001)  ploadbar=  1.01107965561296E+05
 cg2d: Sum(rhs),rhsMax =  -9.42935868726966E+01  1.61603193662716E+00
(PID.TID 0000.0001)  ploadbar=  1.01108912396504E+05
 cg2d: Sum(rhs),rhsMax =  -9.45725301102927E+01  1.61099093275790E+00
(PID.TID 0000.0001)  ploadbar=  1.01109859231712E+05
 cg2d: Sum(rhs),rhsMax =  -9.48199101002875E+01  1.60650300483436E+00
(PID.TID 0000.0001)  ploadbar=  1.01110806066920E+05
 cg2d: Sum(rhs),rhsMax =  -9.50451212634991E+01  1.60239567256040E+00
(PID.TID 0000.0001)  ploadbar=  1.01111752902128E+05
 cg2d: Sum(rhs),rhsMax =  -9.52381445629666E+01  1.59882700725167E+00
(PID.TID 0000.0001)  ploadbar=  1.01112699737336E+05
 cg2d: Sum(rhs),rhsMax =  -9.54103229155943E+01  1.59570095972765E+00
(PID.TID 0000.0001)  ploadbar=  1.01113436719646E+05
 cg2d: Sum(rhs),rhsMax =  -9.55596798144108E+01  1.59303983802839E+00
(PID.TID 0000.0001)  ploadbar=  1.01114173701956E+05
 cg2d: Sum(rhs),rhsMax =  -9.56745858199749E+01  1.59102701322275E+00
(PID.TID 0000.0001)  ploadbar=  1.01114910684265E+05
 cg2d: Sum(rhs),rhsMax =  -9.57200140596751E+01  1.59023084675188E+00
(PID.TID 0000.0001)  ploadbar=  1.01115647666575E+05
 cg2d: Sum(rhs),rhsMax =  -9.57512581712500E+01  1.58972278512771E+00
(PID.TID 0000.0001)  ploadbar=  1.01116384648885E+05
 cg2d: Sum(rhs),rhsMax =  -9.61438236110856E+01  1.58328681707938E+00
(PID.TID 0000.0001)  ploadbar=  1.01117121631194E+05
 cg2d: Sum(rhs),rhsMax =  -9.63309885081471E+01  1.58027786908622E+00
(PID.TID 0000.0001)  ploadbar=  1.01117122963279E+05
 cg2d: Sum(rhs),rhsMax =  -9.64323887050445E+01  1.57869348028591E+00
(PID.TID 0000.0001)  ploadbar=  1.01117124295363E+05
 cg2d: Sum(rhs),rhsMax =  -9.64097388108406E+01  1.57914702502354E+00
(PID.TID 0000.0001)  ploadbar=  1.01117125627448E+05
 cg2d: Sum(rhs),rhsMax =  -9.62522742633830E+01  1.58181608473732E+00
(PID.TID 0000.0001)  ploadbar=  1.01117126959532E+05
 cg2d: Sum(rhs),rhsMax =  -9.59713756490870E+01  1.58652751703822E+00
(PID.TID 0000.0001)  ploadbar=  1.01117128291616E+05
 cg2d: Sum(rhs),rhsMax =  -9.56704004487441E+01  1.59159006558268E+00
(PID.TID 0000.0001)  ploadbar=  1.01117129623701E+05
 cg2d: Sum(rhs),rhsMax =  -9.54663132343120E+01  1.59508092658652E+00
(PID.TID 0000.0001)  ploadbar=  1.01116641950636E+05
 cg2d: Sum(rhs),rhsMax =  -9.53365492040244E+01  1.59735169746650E+00
(PID.TID 0000.0001)  ploadbar=  1.01116154277571E+05
 cg2d: Sum(rhs),rhsMax =  -9.52605402841457E+01  1.59873531108210E+00
(PID.TID 0000.0001)  ploadbar=  1.01115666604507E+05
 cg2d: Sum(rhs),rhsMax =  -9.52576735599030E+01  1.59889770037483E+00
(PID.TID 0000.0001)  ploadbar=  1.01115178931442E+05
 cg2d: Sum(rhs),rhsMax =  -9.53349192940807E+01  1.59771794620642E+00
(PID.TID 0000.0001)  ploadbar=  1.01114691258377E+05
 cg2d: Sum(rhs),rhsMax =  -9.54973340094484E+01  1.59511108461036E+00
(PID.TID 0000.0001)  ploadbar=  1.01114203585312E+05
 cg2d: Sum(rhs),rhsMax =  -9.57184340057399E+01  1.59152093441495E+00
(PID.TID 0000.0001)  ploadbar=  1.01114232531144E+05
 cg2d: Sum(rhs),rhsMax =  -9.59850104170225E+01  1.58717675639254E+00
(PID.TID 0000.0001)  ploadbar=  1.01114261476976E+05
 cg2d: Sum(rhs),rhsMax =  -9.63178172690694E+01  1.58174615575681E+00
(PID.TID 0000.0001)  ploadbar=  1.01114290422808E+05
 cg2d: Sum(rhs),rhsMax =  -9.67196858398766E+01  1.57520089234138E+00
(PID.TID 0000.0001)  ploadbar=  1.01114319368640E+05
 cg2d: Sum(rhs),rhsMax =  -9.71876978350696E+01  1.56761324522295E+00
(PID.TID 0000.0001)  ploadbar=  1.01114348314472E+05
 cg2d: Sum(rhs),rhsMax =  -9.76948491526057E+01  1.55943809724529E+00
(PID.TID 0000.0001)  ploadbar=  1.01114377260304E+05
 cg2d: Sum(rhs),rhsMax =  -9.82270382680423E+01  1.55096998155141E+00
(PID.TID 0000.0001)  ploadbar=  1.01113985553738E+05
 cg2d: Sum(rhs),rhsMax =  -9.87644441113437E+01  1.54252168063564E+00
(PID.TID 0000.0001)  ploadbar=  1.01113593847171E+05
 cg2d: Sum(rhs),rhsMax =  -9.92764855385381E+01  1.53456243157411E+00
(PID.TID 0000.0001)  ploadbar=  1.01113202140605E+05
 cg2d: Sum(rhs),rhsMax =  -9.97523425450137E+01  1.52723774342220E+00
(PID.TID 0000.0001)  ploadbar=  1.01112810434038E+05
 cg2d: Sum(rhs),rhsMax =  -1.00189252296281E+02  1.52056771800435E+00
(PID.TID 0000.0001)  ploadbar=  1.01112418727472E+05
 cg2d: Sum(rhs),rhsMax =  -1.00582982114980E+02  1.51459800607261E+00
(PID.TID 0000.0001)  ploadbar=  1.01112027020905E+05
 cg2d: Sum(rhs),rhsMax =  -1.00934696616976E+02  1.50931161374594E+00
(PID.TID 0000.0001)  ploadbar=  1.01111889678910E+05
 cg2d: Sum(rhs),rhsMax =  -1.01281215851112E+02  1.50414368295464E+00
(PID.TID 0000.0001)  ploadbar=  1.01111752336914E+05
 cg2d: Sum(rhs),rhsMax =  -1.01664131949090E+02  1.49847278816423E+00
(PID.TID 0000.0001)  ploadbar=  1.01111614994918E+05
 cg2d: Sum(rhs),rhsMax =  -1.02100545348307E+02  1.49205464380524E+00
(PID.TID 0000.0001)  ploadbar=  1.01111477652923E+05
 cg2d: Sum(rhs),rhsMax =  -1.02635690007500E+02  1.48425005405960E+00
(PID.TID 0000.0001)  ploadbar=  1.01111340310927E+05
 cg2d: Sum(rhs),rhsMax =  -1.03241483767727E+02  1.47549873039132E+00
(PID.TID 0000.0001)  ploadbar=  1.01111202968931E+05
 cg2d: Sum(rhs),rhsMax =  -1.03898777379168E+02  1.46613393867090E+00
(PID.TID 0000.0001)  ploadbar=  1.01111482667599E+05
 cg2d: Sum(rhs),rhsMax =  -1.04565617983269E+02  1.45676313857727E+00
(PID.TID 0000.0001)  ploadbar=  1.01111762366267E+05
 cg2d: Sum(rhs),rhsMax =  -1.05225807749389E+02  1.44761002327813E+00
(PID.TID 0000.0001)  ploadbar=  1.01112042064935E+05
 cg2d: Sum(rhs),rhsMax =  -1.05845777366552E+02  1.43912018168908E+00
(PID.TID 0000.0001)  ploadbar=  1.01112321763603E+05
 cg2d: Sum(rhs),rhsMax =  -1.06401992137368E+02  1.43158131892403E+00
(PID.TID 0000.0001)  ploadbar=  1.01112601462271E+05
 cg2d: Sum(rhs),rhsMax =  -1.06890397252654E+02  1.42501345725127E+00
(PID.TID 0000.0001)  ploadbar=  1.01112881160939E+05
 cg2d: Sum(rhs),rhsMax =  -1.07282108625345E+02  1.41977396644217E+00
(PID.TID 0000.0001)  ploadbar=  1.01112951091744E+05
 cg2d: Sum(rhs),rhsMax =  -1.07638397723924E+02  1.41502409325854E+00
(PID.TID 0000.0001)  ploadbar=  1.01113021022550E+05
 cg2d: Sum(rhs),rhsMax =  -1.07981183543654E+02  1.41046226677015E+00
(PID.TID 0000.0001)  ploadbar=  1.01113090953355E+05
 cg2d: Sum(rhs),rhsMax =  -1.08316940569139E+02  1.40599624822171E+00
(PID.TID 0000.0001)  ploadbar=  1.01113160884161E+05
 cg2d: Sum(rhs),rhsMax =  -1.08651414119122E+02  1.40154771940019E+00
(PID.TID 0000.0001)  ploadbar=  1.01113230814966E+05
 cg2d: Sum(rhs),rhsMax =  -1.08988213852208E+02  1.39706701607517E+00
(PID.TID 0000.0001)  ploadbar=  1.01113300745772E+05
 cg2d: Sum(rhs),rhsMax =  -1.09310512633122E+02  1.39281968178892E+00
(PID.TID 0000.0001)  ploadbar=  1.01113844686936E+05
 cg2d: Sum(rhs),rhsMax =  -1.09610775727207E+02  1.38889104278680E+00
(PID.TID 0000.0001)  ploadbar=  1.01114388628100E+05
 cg2d: Sum(rhs),rhsMax =  -1.09891744546051E+02  1.38523623860854E+00
(PID.TID 0000.0001)  ploadbar=  1.01114932569263E+05
 cg2d: Sum(rhs),rhsMax =  -1.09346706698922E+02  1.39204212579335E+00
(PID.TID 0000.0001)  ploadbar=  1.01115476510427E+05
 cg2d: Sum(rhs),rhsMax =  -1.08723971937210E+02  1.39991802170372E+00
(PID.TID 0000.0001)  ploadbar=  1.01116020451591E+05
 cg2d: Sum(rhs),rhsMax =  -1.08187361059281E+02  1.40676297019176E+00
(PID.TID 0000.0001)  ploadbar=  1.01116564392755E+05
 cg2d: Sum(rhs),rhsMax =  -1.07835347807331E+02  1.41126842326009E+00
(PID.TID 0000.0001)  ploadbar=  1.01116804288715E+05
 cg2d: Sum(rhs),rhsMax =  -1.07580032372558E+02  1.41453773245025E+00
(PID.TID 0000.0001)  ploadbar=  1.01117044184675E+05
 cg2d: Sum(rhs),rhsMax =  -1.07380457135152E+02  1.41708783870564E+00
(PID.TID 0000.0001)  ploadbar=  1.01117284080635E+05
 cg2d: Sum(rhs),rhsMax =  -1.07167147490995E+02  1.41982382688476E+00
(PID.TID 0000.0001)  ploadbar=  1.01117523976594E+05
 cg2d: Sum(rhs),rhsMax =  -1.06858594489909E+02  1.42382899086020E+00
(PID.TID 0000.0001)  ploadbar=  1.01117763872554E+05
 cg2d: Sum(rhs),rhsMax =  -1.06379734995374E+02  1.43012925569580E+00
(PID.TID 0000.0001)  ploadbar=  1.01118003768514E+05
 cg2d: Sum(rhs),rhsMax =  -1.05742632260234E+02  1.43863531554903E+00
(PID.TID 0000.0001)  ploadbar=  1.01118866881881E+05
 cg2d: Sum(rhs),rhsMax =  -1.04982754335791E+02  1.44893067074379E+00
(PID.TID 0000.0001)  ploadbar=  1.01119729995247E+05
 cg2d: Sum(rhs),rhsMax =  -1.04158846435401E+02  1.46025954566519E+00
(PID.TID 0000.0001)  ploadbar=  1.01120593108614E+05
 cg2d: Sum(rhs),rhsMax =  -1.03343264034018E+02  1.47162804077887E+00
(PID.TID 0000.0001)  ploadbar=  1.01121456221980E+05
 cg2d: Sum(rhs),rhsMax =  -1.02614294400680E+02  1.48189529716437E+00
(PID.TID 0000.0001)  ploadbar=  1.01122319335347E+05
 cg2d: Sum(rhs),rhsMax =  -1.02028744028238E+02  1.49017603080612E+00
(PID.TID 0000.0001)  ploadbar=  1.01123182448713E+05
 cg2d: Sum(rhs),rhsMax =  -1.01650769098520E+02  1.49546401764737E+00
(PID.TID 0000.0001)  ploadbar=  1.01123688246129E+05
 cg2d: Sum(rhs),rhsMax =  -1.01430576017820E+02  1.49842682319300E+00
(PID.TID 0000.0001)  ploadbar=  1.01124194043545E+05
 cg2d: Sum(rhs),rhsMax =  -1.01304160225555E+02  1.49997906817044E+00
(PID.TID 0000.0001)  ploadbar=  1.01124699840961E+05
 cg2d: Sum(rhs),rhsMax =  -1.01202402063803E+02  1.50112968650938E+00
(PID.TID 0000.0001)  ploadbar=  1.01125205638377E+05
 cg2d: Sum(rhs),rhsMax =  -1.01059524257065E+02  1.50285016769192E+00
(PID.TID 0000.0001)  ploadbar=  1.01125711435793E+05
 cg2d: Sum(rhs),rhsMax =  -1.00832135170255E+02  1.50578961147366E+00
(PID.TID 0000.0001)  ploadbar=  1.01126217233209E+05
 cg2d: Sum(rhs),rhsMax =  -1.00515388745172E+02  1.51012788071241E+00
(PID.TID 0000.0001)  ploadbar=  1.01126736120477E+05
 cg2d: Sum(rhs),rhsMax =  -1.00109353460072E+02  1.51588521270485E+00
(PID.TID 0000.0001)  ploadbar=  1.01127255007745E+05
 cg2d: Sum(rhs),rhsMax =  -9.96307078223753E+01  1.52283345578115E+00
(PID.TID 0000.0001)  ploadbar=  1.01127773895013E+05
 cg2d: Sum(rhs),rhsMax =  -9.91150114199573E+01  1.53045020476427E+00
(PID.TID 0000.0001)  ploadbar=  1.01128292782282E+05
 cg2d: Sum(rhs),rhsMax =  -9.86010592500046E+01  1.53814482728334E+00
(PID.TID 0000.0001)  ploadbar=  1.01128811669550E+05
 cg2d: Sum(rhs),rhsMax =  -9.81197207148271E+01  1.54542686089688E+00
(PID.TID 0000.0001)  ploadbar=  1.01129330556818E+05
 cg2d: Sum(rhs),rhsMax =  -9.76170708152020E+01  1.55313570865310E+00
(PID.TID 0000.0001)  ploadbar=  1.01127643803818E+05
 cg2d: Sum(rhs),rhsMax =  -9.71284003947721E+01  1.56071082227869E+00
(PID.TID 0000.0001)  ploadbar=  1.01125957050819E+05
 cg2d: Sum(rhs),rhsMax =  -9.66686406076583E+01  1.56789846093039E+00
(PID.TID 0000.0001)  ploadbar=  1.01124270297820E+05
 cg2d: Sum(rhs),rhsMax =  -9.62192795753878E+01  1.57498127140273E+00
(PID.TID 0000.0001)  ploadbar=  1.01122583544820E+05
 cg2d: Sum(rhs),rhsMax =  -9.57695524170620E+01  1.58212888360462E+00
(PID.TID 0000.0001)  ploadbar=  1.01120896791821E+05
 cg2d: Sum(rhs),rhsMax =  -9.52857990422134E+01  1.58989947260553E+00
(PID.TID 0000.0001)  ploadbar=  1.01119210038821E+05
 cg2d: Sum(rhs),rhsMax =  -9.49205487137341E+01  1.59578217789775E+00
(PID.TID 0000.0001)  ploadbar=  1.01117820385160E+05
 cg2d: Sum(rhs),rhsMax =  -9.46331769933428E+01  1.60041244393717E+00
(PID.TID 0000.0001)  ploadbar=  1.01116430731498E+05
 cg2d: Sum(rhs),rhsMax =  -9.44588799543819E+01  1.60316447210644E+00
(PID.TID 0000.0001)  ploadbar=  1.01115041077836E+05
 cg2d: Sum(rhs),rhsMax =  -9.44076708811097E+01  1.60384120889533E+00
(PID.TID 0000.0001)  ploadbar=  1.01113651424175E+05
 cg2d: Sum(rhs),rhsMax =  -9.44968151334451E+01  1.60214046902197E+00
(PID.TID 0000.0001)  ploadbar=  1.01112261770513E+05
 cg2d: Sum(rhs),rhsMax =  -9.47395769762411E+01  1.59784691107373E+00
(PID.TID 0000.0001)  ploadbar=  1.01110872116852E+05
 cg2d: Sum(rhs),rhsMax =  -9.52952062079434E+01  1.58832745203336E+00
(PID.TID 0000.0001)  ploadbar=  1.01110421094752E+05
 cg2d: Sum(rhs),rhsMax =  -9.61073754554492E+01  1.57468412929555E+00
(PID.TID 0000.0001)  ploadbar=  1.01109970072652E+05
 cg2d: Sum(rhs),rhsMax =  -9.71276813659765E+01  1.55790089275637E+00
(PID.TID 0000.0001)  ploadbar=  1.01109519050552E+05
 cg2d: Sum(rhs),rhsMax =  -9.82775073032257E+01  1.53940665833285E+00
(PID.TID 0000.0001)  ploadbar=  1.01109068028452E+05
 cg2d: Sum(rhs),rhsMax =  -9.94821097018637E+01  1.52046732668219E+00
(PID.TID 0000.0001)  ploadbar=  1.01108617006353E+05
 cg2d: Sum(rhs),rhsMax =  -1.00680591175363E+02  1.50203248008430E+00
(PID.TID 0000.0001)  ploadbar=  1.01108165984253E+05
 cg2d: Sum(rhs),rhsMax =  -1.01844393474601E+02  1.48459007514782E+00
(PID.TID 0000.0001)  ploadbar=  1.01109369959376E+05
 cg2d: Sum(rhs),rhsMax =  -1.02775940927047E+02  1.47090905982334E+00
(PID.TID 0000.0001)  ploadbar=  1.01110573934499E+05
 cg2d: Sum(rhs),rhsMax =  -1.03605462356464E+02  1.45895576597466E+00
(PID.TID 0000.0001)  ploadbar=  1.01111777909621E+05
 cg2d: Sum(rhs),rhsMax =  -1.04486039220396E+02  1.44652775266288E+00
(PID.TID 0000.0001)  ploadbar=  1.01112981884744E+05
 cg2d: Sum(rhs),rhsMax =  -1.05405016736119E+02  1.43382520378449E+00
(PID.TID 0000.0001)  ploadbar=  1.01114185859867E+05
 cg2d: Sum(rhs),rhsMax =  -1.06483107864628E+02  1.41925582784222E+00
(PID.TID 0000.0001)  ploadbar=  1.01115389834990E+05
 cg2d: Sum(rhs),rhsMax =  -1.07758893005379E+02  1.40240506654856E+00
(PID.TID 0000.0001)  ploadbar=  1.01116607071682E+05
 cg2d: Sum(rhs),rhsMax =  -1.09391821907563E+02  1.38142344388930E+00
(PID.TID 0000.0001)  ploadbar=  1.01117824308375E+05
 cg2d: Sum(rhs),rhsMax =  -1.11405296825322E+02  1.35640210500427E+00
(PID.TID 0000.0001)  ploadbar=  1.01119041545067E+05
 cg2d: Sum(rhs),rhsMax =  -1.13776406236039E+02  1.32806775233132E+00
(PID.TID 0000.0001)  ploadbar=  1.01120258781760E+05
 cg2d: Sum(rhs),rhsMax =  -1.16458333778968E+02  1.29739755448536E+00
(PID.TID 0000.0001)  ploadbar=  1.01121476018453E+05
 cg2d: Sum(rhs),rhsMax =  -1.19312411823923E+02  1.26625074576235E+00
(PID.TID 0000.0001)  ploadbar=  1.01122693255145E+05
 cg2d: Sum(rhs),rhsMax =  -1.22194963589752E+02  1.23627705848926E+00
(PID.TID 0000.0001)  ploadbar=  1.01124205023710E+05
 cg2d: Sum(rhs),rhsMax =  -1.25142125479359E+02  1.20706542480402E+00
(PID.TID 0000.0001)  ploadbar=  1.01125716792276E+05
 cg2d: Sum(rhs),rhsMax =  -1.25752012777153E+02  1.20111397919103E+00
(PID.TID 0000.0001)  ploadbar=  1.01127228560841E+05
 cg2d: Sum(rhs),rhsMax =  -1.26064812400975E+02  1.19802892138139E+00
(PID.TID 0000.0001)  ploadbar=  1.01128740329406E+05
 cg2d: Sum(rhs),rhsMax =  -1.26347155973178E+02  1.19523464085430E+00
(PID.TID 0000.0001)  ploadbar=  1.01130252097971E+05
 cg2d: Sum(rhs),rhsMax =  -1.26589110842351E+02  1.19281441153693E+00
(PID.TID 0000.0001)  ploadbar=  1.01131763866536E+05
 cg2d: Sum(rhs),rhsMax =  -1.26716111424954E+02  1.19146598045872E+00
(PID.TID 0000.0001)  ploadbar=  1.01132431349178E+05
 cg2d: Sum(rhs),rhsMax =  -1.26786034885151E+02  1.19063750432169E+00
(PID.TID 0000.0001)  ploadbar=  1.01133098831820E+05
 cg2d: Sum(rhs),rhsMax =  -1.26822280172675E+02  1.19010525467838E+00
(PID.TID 0000.0001)  ploadbar=  1.01133766314462E+05
 cg2d: Sum(rhs),rhsMax =  -1.26810286044405E+02  1.19000424045006E+00
(PID.TID 0000.0001)  ploadbar=  1.01134433797104E+05
 cg2d: Sum(rhs),rhsMax =  -1.26747430682488E+02  1.19035792749349E+00
(PID.TID 0000.0001)  ploadbar=  1.01135101279746E+05
 cg2d: Sum(rhs),rhsMax =  -1.26637897537832E+02  1.19112401162094E+00
(PID.TID 0000.0001)  ploadbar=  1.01135768762388E+05
 cg2d: Sum(rhs),rhsMax =  -1.26446881696951E+02  1.19269508130052E+00
(PID.TID 0000.0001)  ploadbar=  1.01135309461310E+05
 cg2d: Sum(rhs),rhsMax =  -1.26234239712831E+02  1.19450976970104E+00
(PID.TID 0000.0001)  ploadbar=  1.01134850160231E+05
 cg2d: Sum(rhs),rhsMax =  -1.26027551832328E+02  1.19630609748150E+00
(PID.TID 0000.0001)  ploadbar=  1.01134390859152E+05
 cg2d: Sum(rhs),rhsMax =  -1.25825747153007E+02  1.19808940459280E+00
(PID.TID 0000.0001)  ploadbar=  1.01133931558074E+05
 cg2d: Sum(rhs),rhsMax =  -1.25651715193237E+02  1.19963747553290E+00
(PID.TID 0000.0001)  ploadbar=  1.01133472256995E+05
 cg2d: Sum(rhs),rhsMax =  -1.25521414070270E+02  1.20079234184572E+00
(PID.TID 0000.0001)  ploadbar=  1.01133012955917E+05
 cg2d: Sum(rhs),rhsMax =  -1.25369377179417E+02  1.20215003162319E+00
(PID.TID 0000.0001)  ploadbar=  1.01131937957440E+05
 cg2d: Sum(rhs),rhsMax =  -1.25222893848346E+02  1.20344523304032E+00
(PID.TID 0000.0001)  ploadbar=  1.01130862958963E+05
 cg2d: Sum(rhs),rhsMax =  -1.25081271671916E+02  1.20468067420974E+00
(PID.TID 0000.0001)  ploadbar=  1.01129787960486E+05
 cg2d: Sum(rhs),rhsMax =  -1.24940686343702E+02  1.20588885493396E+00
(PID.TID 0000.0001)  ploadbar=  1.01128712962009E+05
 cg2d: Sum(rhs),rhsMax =  -1.24795166816366E+02  1.20712360577460E+00
(PID.TID 0000.0001)  ploadbar=  1.01127637963532E+05
 cg2d: Sum(rhs),rhsMax =  -1.24642132777828E+02  1.20840626644538E+00
(PID.TID 0000.0001)  ploadbar=  1.01126562965055E+05
 cg2d: Sum(rhs),rhsMax =  -1.24532496287964E+02  1.20930682946232E+00
(PID.TID 0000.0001)  ploadbar=  1.01124650919129E+05
 cg2d: Sum(rhs),rhsMax =  -1.24399888852002E+02  1.21046466106544E+00
(PID.TID 0000.0001)  ploadbar=  1.01122738873203E+05
 cg2d: Sum(rhs),rhsMax =  -1.24249307464992E+02  1.21182581151031E+00
(PID.TID 0000.0001)  ploadbar=  1.01120826827276E+05
 cg2d: Sum(rhs),rhsMax =  -1.24110222508786E+02  1.21309423022398E+00
(PID.TID 0000.0001)  ploadbar=  1.01118914781350E+05
 cg2d: Sum(rhs),rhsMax =  -1.23994341810985E+02  1.21414654451148E+00
(PID.TID 0000.0001)  ploadbar=  1.01117002735424E+05
 cg2d: Sum(rhs),rhsMax =  -1.23907633943337E+02  1.21491303660341E+00
(PID.TID 0000.0001)  ploadbar=  1.01115090689497E+05
 cg2d: Sum(rhs),rhsMax =  -1.23830826752390E+02  1.21556703881310E+00
(PID.TID 0000.0001)  ploadbar=  1.01113674013446E+05
 cg2d: Sum(rhs),rhsMax =  -1.23757210238214E+02  1.21616892424391E+00
(PID.TID 0000.0001)  ploadbar=  1.01112257337395E+05
 cg2d: Sum(rhs),rhsMax =  -1.23688612983757E+02  1.21669609274046E+00
(PID.TID 0000.0001)  ploadbar=  1.01110840661343E+05
 cg2d: Sum(rhs),rhsMax =  -1.23631905252129E+02  1.21707782808853E+00
(PID.TID 0000.0001)  ploadbar=  1.01109423985292E+05
 cg2d: Sum(rhs),rhsMax =  -1.23580768870189E+02  1.21737177628053E+00
(PID.TID 0000.0001)  ploadbar=  1.01108007309241E+05
 cg2d: Sum(rhs),rhsMax =  -1.23532513209037E+02  1.21759899567254E+00
(PID.TID 0000.0001)  ploadbar=  1.01106590633189E+05
 cg2d: Sum(rhs),rhsMax =  -1.23495522769619E+02  1.21775184189782E+00
(PID.TID 0000.0001)  ploadbar=  1.01106153493470E+05
 cg2d: Sum(rhs),rhsMax =  -1.23448202157216E+02  1.21803848767646E+00
(PID.TID 0000.0001)  ploadbar=  1.01105716353751E+05
 cg2d: Sum(rhs),rhsMax =  -1.23383696250750E+02  1.21852062886843E+00
(PID.TID 0000.0001)  ploadbar=  1.01105279214032E+05
 cg2d: Sum(rhs),rhsMax =  -1.23317432164079E+02  1.21904083707888E+00
(PID.TID 0000.0001)  ploadbar=  1.01104842074312E+05
 cg2d: Sum(rhs),rhsMax =  -1.23258717717916E+02  1.21950085352103E+00
(PID.TID 0000.0001)  ploadbar=  1.01104404934593E+05
 cg2d: Sum(rhs),rhsMax =  -1.23210921309428E+02  1.21985877450150E+00
(PID.TID 0000.0001)  ploadbar=  1.01103967794874E+05
 cg2d: Sum(rhs),rhsMax =  -1.23329748062551E+02  1.21855447972317E+00
(PID.TID 0000.0001)  ploadbar=  1.01103561342816E+05
 cg2d: Sum(rhs),rhsMax =  -1.23503806754324E+02  1.21668865187096E+00
(PID.TID 0000.0001)  ploadbar=  1.01103154890759E+05
 cg2d: Sum(rhs),rhsMax =  -1.23693594969870E+02  1.21464618603464E+00
(PID.TID 0000.0001)  ploadbar=  1.01102748438702E+05
 cg2d: Sum(rhs),rhsMax =  -1.23916489459944E+02  1.21225385312744E+00
(PID.TID 0000.0001)  ploadbar=  1.01102341986644E+05
 cg2d: Sum(rhs),rhsMax =  -1.24187303988451E+02  1.20936541385962E+00
(PID.TID 0000.0001)  ploadbar=  1.01101935534587E+05
 cg2d: Sum(rhs),rhsMax =  -1.24506057617874E+02  1.20598153390371E+00
(PID.TID 0000.0001)  ploadbar=  1.01101529082529E+05
 cg2d: Sum(rhs),rhsMax =  -1.24836706995268E+02  1.20253163437278E+00
(PID.TID 0000.0001)  ploadbar=  1.01101083824302E+05
 cg2d: Sum(rhs),rhsMax =  -1.25271444951800E+02  1.19813029391688E+00
(PID.TID 0000.0001)  ploadbar=  1.01100638566074E+05
 cg2d: Sum(rhs),rhsMax =  -1.25744479272561E+02  1.19341816203256E+00
(PID.TID 0000.0001)  ploadbar=  1.01100193307846E+05
 cg2d: Sum(rhs),rhsMax =  -1.26228656967288E+02  1.18865424254553E+00
(PID.TID 0000.0001)  ploadbar=  1.01099748049618E+05
 cg2d: Sum(rhs),rhsMax =  -1.26725205572672E+02  1.18382255903119E+00
(PID.TID 0000.0001)  ploadbar=  1.01099302791391E+05
 cg2d: Sum(rhs),rhsMax =  -1.27237864892199E+02  1.17888300834055E+00
(PID.TID 0000.0001)  ploadbar=  1.01098857533163E+05
 cg2d: Sum(rhs),rhsMax =  -1.27735114554296E+02  1.17412199800441E+00
(PID.TID 0000.0001)  ploadbar=  1.01099175154004E+05
 cg2d: Sum(rhs),rhsMax =  -1.28222184174839E+02  1.16948428312644E+00
(PID.TID 0000.0001)  ploadbar=  1.01099492774846E+05
 cg2d: Sum(rhs),rhsMax =  -1.28670818036895E+02  1.16521995823107E+00
(PID.TID 0000.0001)  ploadbar=  1.01099810395688E+05
 cg2d: Sum(rhs),rhsMax =  -1.29069810060651E+02  1.16141655769454E+00
(PID.TID 0000.0001)  ploadbar=  1.01100128016529E+05
 cg2d: Sum(rhs),rhsMax =  -1.29417513539828E+02  1.15807428970138E+00
(PID.TID 0000.0001)  ploadbar=  1.01100445637371E+05
 cg2d: Sum(rhs),rhsMax =  -1.29720745056905E+02  1.15511941442889E+00
(PID.TID 0000.0001)  ploadbar=  1.01100763258212E+05
 cg2d: Sum(rhs),rhsMax =  -1.29976433391725E+02  1.15264764393722E+00
(PID.TID 0000.0001)  ploadbar=  1.01102158389042E+05
 cg2d: Sum(rhs),rhsMax =  -1.30257940860030E+02  1.15000415464604E+00
(PID.TID 0000.0001)  ploadbar=  1.01103553519871E+05
 cg2d: Sum(rhs),rhsMax =  -1.30545825078170E+02  1.14735679714717E+00
(PID.TID 0000.0001)  ploadbar=  1.01104948650700E+05
 cg2d: Sum(rhs),rhsMax =  -1.30809917626277E+02  1.14496372048976E+00
(PID.TID 0000.0001)  ploadbar=  1.01106343781530E+05
 cg2d: Sum(rhs),rhsMax =  -1.31030101045093E+02  1.14299073079436E+00
(PID.TID 0000.0001)  ploadbar=  1.01107738912359E+05
 cg2d: Sum(rhs),rhsMax =  -1.31199636948199E+02  1.14148466940316E+00
(PID.TID 0000.0001)  ploadbar=  1.01109134043189E+05
 cg2d: Sum(rhs),rhsMax =  -1.31203684972609E+02  1.14140577012703E+00
(PID.TID 0000.0001)  ploadbar=  1.01108833556792E+05
 cg2d: Sum(rhs),rhsMax =  -1.31149778764283E+02  1.14181379013762E+00
(PID.TID 0000.0001)  ploadbar=  1.01108533070395E+05
 cg2d: Sum(rhs),rhsMax =  -1.31073302156533E+02  1.14239808067344E+00
(PID.TID 0000.0001)  ploadbar=  1.01108232583999E+05
 cg2d: Sum(rhs),rhsMax =  -1.30967003826170E+02  1.14321907998305E+00
(PID.TID 0000.0001)  ploadbar=  1.01107932097602E+05
 cg2d: Sum(rhs),rhsMax =  -1.30826767978766E+02  1.14431155110419E+00
(PID.TID 0000.0001)  ploadbar=  1.01107631611206E+05
 cg2d: Sum(rhs),rhsMax =  -1.30660564816275E+02  1.14560394574667E+00
(PID.TID 0000.0001)  ploadbar=  1.01107331124809E+05
 cg2d: Sum(rhs),rhsMax =  -1.30438545682723E+02  1.14741009615801E+00
(PID.TID 0000.0001)  ploadbar=  1.01107696287066E+05
 cg2d: Sum(rhs),rhsMax =  -1.30207894894037E+02  1.14931488241831E+00
(PID.TID 0000.0001)  ploadbar=  1.01108061449323E+05
 cg2d: Sum(rhs),rhsMax =  -1.30051135771395E+02  1.15058574082371E+00
(PID.TID 0000.0001)  ploadbar=  1.01108426611580E+05
 cg2d: Sum(rhs),rhsMax =  -1.29970480584210E+02  1.15119446725869E+00
(PID.TID 0000.0001)  ploadbar=  1.01108791773837E+05
 cg2d: Sum(rhs),rhsMax =  -1.29961771214558E+02  1.15117232883532E+00
(PID.TID 0000.0001)  ploadbar=  1.01109156936094E+05
 cg2d: Sum(rhs),rhsMax =  -1.30022999445720E+02  1.15052972230629E+00
(PID.TID 0000.0001)  ploadbar=  1.01109522098351E+05
 cg2d: Sum(rhs),rhsMax =  -1.30123515062093E+02  1.14953094833465E+00
(PID.TID 0000.0001)  ploadbar=  1.01109040731103E+05
 cg2d: Sum(rhs),rhsMax =  -1.30342321515786E+02  1.14747914679910E+00
(PID.TID 0000.0001)  ploadbar=  1.01108559363854E+05
 cg2d: Sum(rhs),rhsMax =  -1.30648500990112E+02  1.14465263585592E+00
(PID.TID 0000.0001)  ploadbar=  1.01108077996606E+05
 cg2d: Sum(rhs),rhsMax =  -1.31016819182332E+02  1.14127804699967E+00
(PID.TID 0000.0001)  ploadbar=  1.01107596629358E+05
 cg2d: Sum(rhs),rhsMax =  -1.31419062327057E+02  1.13760687066056E+00
(PID.TID 0000.0001)  ploadbar=  1.01107115262109E+05
 cg2d: Sum(rhs),rhsMax =  -1.31816032100941E+02  1.13397750698706E+00
(PID.TID 0000.0001)  ploadbar=  1.01106633894861E+05
 cg2d: Sum(rhs),rhsMax =  -1.32332370728950E+02  1.12940766946099E+00
(PID.TID 0000.0001)  ploadbar=  1.01106274238400E+05
 cg2d: Sum(rhs),rhsMax =  -1.32826349770030E+02  1.12511382704668E+00
(PID.TID 0000.0001)  ploadbar=  1.01105914581939E+05
 cg2d: Sum(rhs),rhsMax =  -1.33253400736891E+02  1.12145987674961E+00
(PID.TID 0000.0001)  ploadbar=  1.01105554925478E+05
 cg2d: Sum(rhs),rhsMax =  -1.33609278267593E+02  1.11846133596391E+00
(PID.TID 0000.0001)  ploadbar=  1.01105195269017E+05
 cg2d: Sum(rhs),rhsMax =  -1.33769453907827E+02  1.11714129042393E+00
(PID.TID 0000.0001)  ploadbar=  1.01104835612556E+05
 cg2d: Sum(rhs),rhsMax =  -1.33660903207586E+02  1.11809378379070E+00
(PID.TID 0000.0001)  ploadbar=  1.01104475956095E+05
 cg2d: Sum(rhs),rhsMax =  -1.33032427154127E+02  1.12341017350219E+00
(PID.TID 0000.0001)  ploadbar=  1.01102482708451E+05
 cg2d: Sum(rhs),rhsMax =  -1.32166957845110E+02  1.13078632372184E+00
(PID.TID 0000.0001)  ploadbar=  1.01100489460806E+05
 cg2d: Sum(rhs),rhsMax =  -1.31115762356811E+02  1.13985204080857E+00
(PID.TID 0000.0001)  ploadbar=  1.01098496213162E+05
 cg2d: Sum(rhs),rhsMax =  -1.29859755101702E+02  1.15085093191761E+00
(PID.TID 0000.0001)  ploadbar=  1.01096502965518E+05
 cg2d: Sum(rhs),rhsMax =  -1.28461935908421E+02  1.16331473532993E+00
(PID.TID 0000.0001)  ploadbar=  1.01094509717873E+05
 cg2d: Sum(rhs),rhsMax =  -1.26975139609030E+02  1.17683808370113E+00
(PID.TID 0000.0001)  ploadbar=  1.01092516470229E+05
 cg2d: Sum(rhs),rhsMax =  -1.25426563667176E+02  1.19129996456698E+00
(PID.TID 0000.0001)  ploadbar=  1.01091106693768E+05
 cg2d: Sum(rhs),rhsMax =  -1.23811020066084E+02  1.20680253220444E+00
(PID.TID 0000.0001)  ploadbar=  1.01089696917306E+05
 cg2d: Sum(rhs),rhsMax =  -1.22212233877640E+02  1.22256957756857E+00
(PID.TID 0000.0001)  ploadbar=  1.01088287140845E+05
 cg2d: Sum(rhs),rhsMax =  -1.20637059143197E+02  1.23853065538882E+00
(PID.TID 0000.0001)  ploadbar=  1.01086877364384E+05
 cg2d: Sum(rhs),rhsMax =  -1.19131405184397E+02  1.25419408334614E+00
(PID.TID 0000.0001)  ploadbar=  1.01085467587922E+05
 cg2d: Sum(rhs),rhsMax =  -1.17644517191009E+02  1.27006002483484E+00
(PID.TID 0000.0001)  ploadbar=  1.01084057811461E+05
 cg2d: Sum(rhs),rhsMax =  -1.16249220208527E+02  1.28530945813586E+00
(PID.TID 0000.0001)  ploadbar=  1.01082924536957E+05
 cg2d: Sum(rhs),rhsMax =  -1.14967276816317E+02  1.29963473702289E+00
(PID.TID 0000.0001)  ploadbar=  1.01081791262453E+05
 cg2d: Sum(rhs),rhsMax =  -1.13797122994613E+02  1.31297458548471E+00
(PID.TID 0000.0001)  ploadbar=  1.01080657987948E+05
 cg2d: Sum(rhs),rhsMax =  -1.12768199948225E+02  1.32490538588647E+00
(PID.TID 0000.0001)  ploadbar=  1.01079524713444E+05
 cg2d: Sum(rhs),rhsMax =  -1.11886220202137E+02  1.33527098135856E+00
(PID.TID 0000.0001)  ploadbar=  1.01078391438940E+05
 cg2d: Sum(rhs),rhsMax =  -1.11139089696895E+02  1.34413628298849E+00
(PID.TID 0000.0001)  ploadbar=  1.01077258164436E+05
 cg2d: Sum(rhs),rhsMax =  -1.10685145934328E+02  1.34960649133577E+00
(PID.TID 0000.0001)  ploadbar=  1.01075495724427E+05
 cg2d: Sum(rhs),rhsMax =  -1.10354717851225E+02  1.35366859315593E+00
(PID.TID 0000.0001)  ploadbar=  1.01073733284418E+05
 cg2d: Sum(rhs),rhsMax =  -1.10070349303341E+02  1.35724723281711E+00
(PID.TID 0000.0001)  ploadbar=  1.01071970844409E+05
 cg2d: Sum(rhs),rhsMax =  -1.09844951935487E+02  1.36016887671148E+00
(PID.TID 0000.0001)  ploadbar=  1.01070208404400E+05
 cg2d: Sum(rhs),rhsMax =  -1.09673541907925E+02  1.36247620851425E+00
(PID.TID 0000.0001)  ploadbar=  1.01068445964391E+05
 cg2d: Sum(rhs),rhsMax =  -1.09537655668755E+02  1.36437756241213E+00
(PID.TID 0000.0001)  ploadbar=  1.01066683524382E+05
 cg2d: Sum(rhs),rhsMax =  -1.09450557231024E+02  1.36564580918143E+00
(PID.TID 0000.0001)  ploadbar=  1.01065930575444E+05
 cg2d: Sum(rhs),rhsMax =  -1.09415114388800E+02  1.36623698377440E+00
(PID.TID 0000.0001)  ploadbar=  1.01065177626506E+05
 cg2d: Sum(rhs),rhsMax =  -1.09370278954453E+02  1.36690700084967E+00
(PID.TID 0000.0001)  ploadbar=  1.01064424677568E+05
 cg2d: Sum(rhs),rhsMax =  -1.09298025844791E+02  1.36787975650947E+00
(PID.TID 0000.0001)  ploadbar=  1.01063671728630E+05
 cg2d: Sum(rhs),rhsMax =  -1.09221400887048E+02  1.36886458599043E+00
(PID.TID 0000.0001)  ploadbar=  1.01062918779692E+05
 cg2d: Sum(rhs),rhsMax =  -1.09258931097689E+02  1.36836796699289E+00
(PID.TID 0000.0001)  ploadbar=  1.01062165830753E+05
 cg2d: Sum(rhs),rhsMax =  -1.09317399990004E+02  1.36762545784064E+00
(PID.TID 0000.0001)  ploadbar=  1.01061402940074E+05
 cg2d: Sum(rhs),rhsMax =  -1.09473691108428E+02  1.36567389366264E+00
(PID.TID 0000.0001)  ploadbar=  1.01060640049395E+05
 cg2d: Sum(rhs),rhsMax =  -1.09686311600852E+02  1.36303382900807E+00
(PID.TID 0000.0001)  ploadbar=  1.01059877158716E+05
 cg2d: Sum(rhs),rhsMax =  -1.09935933276780E+02  1.35994402792542E+00
(PID.TID 0000.0001)  ploadbar=  1.01059114268037E+05
 cg2d: Sum(rhs),rhsMax =  -1.10199418940335E+02  1.35669089984614E+00
(PID.TID 0000.0001)  ploadbar=  1.01058351377358E+05
 cg2d: Sum(rhs),rhsMax =  -1.10461181077237E+02  1.35346495177549E+00
(PID.TID 0000.0001)  ploadbar=  1.01057588486679E+05
 cg2d: Sum(rhs),rhsMax =  -1.10590884895775E+02  1.35186137373111E+00
(PID.TID 0000.0001)  ploadbar=  1.01056598891238E+05
 cg2d: Sum(rhs),rhsMax =  -1.10695285628475E+02  1.35055978554774E+00
(PID.TID 0000.0001)  ploadbar=  1.01055609295797E+05
 cg2d: Sum(rhs),rhsMax =  -1.10780105363823E+02  1.34948469619963E+00
(PID.TID 0000.0001)  ploadbar=  1.01054619700355E+05
 cg2d: Sum(rhs),rhsMax =  -1.10856753377218E+02  1.34849062546920E+00
(PID.TID 0000.0001)  ploadbar=  1.01053630104914E+05
 cg2d: Sum(rhs),rhsMax =  -1.10908354849628E+02  1.34777652436055E+00
(PID.TID 0000.0001)  ploadbar=  1.01052640509473E+05
 cg2d: Sum(rhs),rhsMax =  -1.10941838327889E+02  1.34725547698304E+00
(PID.TID 0000.0001)  ploadbar=  1.01051650914032E+05
 cg2d: Sum(rhs),rhsMax =  -1.10891247430017E+02  1.34779743108518E+00
(PID.TID 0000.0001)  ploadbar=  1.01050127921209E+05
 cg2d: Sum(rhs),rhsMax =  -1.10996492688864E+02  1.34648445358315E+00
(PID.TID 0000.0001)  ploadbar=  1.01048604928386E+05
 cg2d: Sum(rhs),rhsMax =  -1.11316109603543E+02  1.34261818386935E+00
(PID.TID 0000.0001)  ploadbar=  1.01047081935563E+05
 cg2d: Sum(rhs),rhsMax =  -1.11712248951140E+02  1.33788540847259E+00
(PID.TID 0000.0001)  ploadbar=  1.01045558942740E+05
 cg2d: Sum(rhs),rhsMax =  -1.12092883836563E+02  1.33339353582137E+00
(PID.TID 0000.0001)  ploadbar=  1.01044035949917E+05
 cg2d: Sum(rhs),rhsMax =  -1.12600650455666E+02  1.32744908535976E+00
(PID.TID 0000.0001)  ploadbar=  1.01042512957093E+05
 cg2d: Sum(rhs),rhsMax =  -1.12690017017141E+02  1.32644352640578E+00
(PID.TID 0000.0001)  ploadbar=  1.01042133157692E+05
 cg2d: Sum(rhs),rhsMax =  -1.10295490976511E+02  1.35526445099516E+00
(PID.TID 0000.0001)  ploadbar=  1.01041753358291E+05
 cg2d: Sum(rhs),rhsMax =  -1.07745206215152E+02  1.38733936892110E+00
(PID.TID 0000.0001)  ploadbar=  1.01041373558890E+05
 cg2d: Sum(rhs),rhsMax =  -1.04671592377444E+02  1.42804280504002E+00
(PID.TID 0000.0001)  ploadbar=  1.01040993759489E+05
 cg2d: Sum(rhs),rhsMax =  -1.01327812805922E+02  1.47509613272087E+00
(PID.TID 0000.0001)  ploadbar=  1.01040613960088E+05
 cg2d: Sum(rhs),rhsMax =  -9.76269067067688E+01  1.53090040243356E+00
(PID.TID 0000.0001)  ploadbar=  1.01040234160686E+05
 cg2d: Sum(rhs),rhsMax =  -9.38548543990358E+01  1.59233787346999E+00
(PID.TID 0000.0001)  ploadbar=  1.01040034703325E+05
 cg2d: Sum(rhs),rhsMax =  -9.02228777160847E+01  1.65636461142682E+00
(PID.TID 0000.0001)  ploadbar=  1.01039835245964E+05
 cg2d: Sum(rhs),rhsMax =  -8.68504239461441E+01  1.72062117327977E+00
(PID.TID 0000.0001)  ploadbar=  1.01039635788603E+05
 cg2d: Sum(rhs),rhsMax =  -8.37635772855296E+01  1.78397572656561E+00
(PID.TID 0000.0001)  ploadbar=  1.01039436331242E+05
 cg2d: Sum(rhs),rhsMax =  -8.09630183146797E+01  1.84563396454496E+00
(PID.TID 0000.0001)  ploadbar=  1.01039236873880E+05
 cg2d: Sum(rhs),rhsMax =  -7.84346054086890E+01  1.90507683332222E+00
(PID.TID 0000.0001)  ploadbar=  1.01039037416519E+05
 cg2d: Sum(rhs),rhsMax =  -7.63845991797950E+01  1.95610002045498E+00
(PID.TID 0000.0001)  ploadbar=  1.01039235698699E+05
 cg2d: Sum(rhs),rhsMax =  -7.46656945397631E+01  2.00096742410114E+00
(PID.TID 0000.0001)  ploadbar=  1.01039433980878E+05
 cg2d: Sum(rhs),rhsMax =  -7.32392830942648E+01  2.03970939336496E+00
(PID.TID 0000.0001)  ploadbar=  1.01039632263058E+05
 cg2d: Sum(rhs),rhsMax =  -7.20969315830011E+01  2.07172652400347E+00
(PID.TID 0000.0001)  ploadbar=  1.01039830545237E+05
 cg2d: Sum(rhs),rhsMax =  -7.12290409782995E+01  2.09658605643970E+00
(PID.TID 0000.0001)  ploadbar=  1.01040028827417E+05
 cg2d: Sum(rhs),rhsMax =  -7.06260198664967E+01  2.11401475309888E+00
(PID.TID 0000.0001)  ploadbar=  1.01040227109596E+05
 cg2d: Sum(rhs),rhsMax =  -7.02634163142406E+01  2.12452341075161E+00
(PID.TID 0000.0001)  ploadbar=  1.01039984486986E+05
 cg2d: Sum(rhs),rhsMax =  -7.00446705303123E+01  2.13082107937967E+00
(PID.TID 0000.0001)  ploadbar=  1.01039741864375E+05
 cg2d: Sum(rhs),rhsMax =  -6.99274237279749E+01  2.13411204911278E+00
(PID.TID 0000.0001)  ploadbar=  1.01039499241764E+05
 cg2d: Sum(rhs),rhsMax =  -6.98958209431540E+01  2.13483997088967E+00
(PID.TID 0000.0001)  ploadbar=  1.01039256619154E+05
 cg2d: Sum(rhs),rhsMax =  -6.99213524845834E+01  2.13386362860990E+00
(PID.TID 0000.0001)  ploadbar=  1.01039013996543E+05
 cg2d: Sum(rhs),rhsMax =  -6.99700291746510E+01  2.13221526601111E+00
(PID.TID 0000.0001)  ploadbar=  1.01038771373932E+05
 cg2d: Sum(rhs),rhsMax =  -6.99941073484709E+01  2.13130579805075E+00
(PID.TID 0000.0001)  ploadbar=  1.01038580749642E+05
 cg2d: Sum(rhs),rhsMax =  -7.00604778302982E+01  2.12909285010592E+00
(PID.TID 0000.0001)  ploadbar=  1.01038390125352E+05
 cg2d: Sum(rhs),rhsMax =  -7.01825908479483E+01  2.12517362133296E+00
(PID.TID 0000.0001)  ploadbar=  1.01038199501061E+05
 cg2d: Sum(rhs),rhsMax =  -7.03577171008148E+01  2.11964454211883E+00
(PID.TID 0000.0001)  ploadbar=  1.01038008876771E+05
 cg2d: Sum(rhs),rhsMax =  -7.06019215314212E+01  2.11204537710902E+00
(PID.TID 0000.0001)  ploadbar=  1.01037818252481E+05
 cg2d: Sum(rhs),rhsMax =  -7.09156711078164E+01  2.10239856416628E+00
(PID.TID 0000.0001)  ploadbar=  1.01037627628190E+05
 cg2d: Sum(rhs),rhsMax =  -7.13070833622780E+01  2.09059445455059E+00
(PID.TID 0000.0001)  ploadbar=  1.01038655355538E+05
 cg2d: Sum(rhs),rhsMax =  -7.17289585870268E+01  2.07806300216381E+00
(PID.TID 0000.0001)  ploadbar=  1.01039683082887E+05
 cg2d: Sum(rhs),rhsMax =  -7.21617980807685E+01  2.06538718253281E+00
(PID.TID 0000.0001)  ploadbar=  1.01040710810235E+05
 cg2d: Sum(rhs),rhsMax =  -7.25864856809468E+01  2.05311334940429E+00
(PID.TID 0000.0001)  ploadbar=  1.01041738537583E+05
 cg2d: Sum(rhs),rhsMax =  -7.29950476854827E+01  2.04144814835711E+00
(PID.TID 0000.0001)  ploadbar=  1.01042766264931E+05
 cg2d: Sum(rhs),rhsMax =  -7.33868957134754E+01  2.03037714868789E+00
(PID.TID 0000.0001)  ploadbar=  1.01043793992279E+05
 cg2d: Sum(rhs),rhsMax =  -7.37751347464136E+01  2.01952804487116E+00
(PID.TID 0000.0001)  ploadbar=  1.01044208639451E+05
 cg2d: Sum(rhs),rhsMax =  -7.41614858441718E+01  2.00883801513658E+00
(PID.TID 0000.0001)  ploadbar=  1.01044623286624E+05
 cg2d: Sum(rhs),rhsMax =  -7.45429587274047E+01  1.99837846417185E+00
(PID.TID 0000.0001)  ploadbar=  1.01045037933796E+05
 cg2d: Sum(rhs),rhsMax =  -7.48869126134806E+01  1.98900622047286E+00
(PID.TID 0000.0001)  ploadbar=  1.01045452580969E+05
 cg2d: Sum(rhs),rhsMax =  -7.52001018403112E+01  1.98051142662257E+00
(PID.TID 0000.0001)  ploadbar=  1.01045867228141E+05
 cg2d: Sum(rhs),rhsMax =  -7.54522461680755E+01  1.97365966460030E+00
(PID.TID 0000.0001)  ploadbar=  1.01046281875313E+05
 cg2d: Sum(rhs),rhsMax =  -7.56407450410317E+01  1.96857582321593E+00
(PID.TID 0000.0001)  ploadbar=  1.01045876873738E+05
 cg2d: Sum(rhs),rhsMax =  -7.57878216450089E+01  1.96464432629799E+00
(PID.TID 0000.0001)  ploadbar=  1.01045471872164E+05
 cg2d: Sum(rhs),rhsMax =  -7.58814184180842E+01  1.96215491505359E+00
(PID.TID 0000.0001)  ploadbar=  1.01045066870589E+05
 cg2d: Sum(rhs),rhsMax =  -7.59227028999090E+01  1.96106401590109E+00
(PID.TID 0000.0001)  ploadbar=  1.01044661869014E+05
 cg2d: Sum(rhs),rhsMax =  -7.59124904256720E+01  1.96133941584313E+00
(PID.TID 0000.0001)  ploadbar=  1.01044256867439E+05
 cg2d: Sum(rhs),rhsMax =  -7.58592043440555E+01  1.96276103295118E+00
(PID.TID 0000.0001)  ploadbar=  1.01043851865864E+05
 cg2d: Sum(rhs),rhsMax =  -7.57538698921565E+01  1.96552720588531E+00
(PID.TID 0000.0001)  ploadbar=  1.01043490955216E+05
 cg2d: Sum(rhs),rhsMax =  -7.56329094804956E+01  1.96869782734831E+00
(PID.TID 0000.0001)  ploadbar=  1.01043130044567E+05
 cg2d: Sum(rhs),rhsMax =  -7.55309185054637E+01  1.97136548041799E+00
(PID.TID 0000.0001)  ploadbar=  1.01042769133918E+05
 cg2d: Sum(rhs),rhsMax =  -7.55416333233715E+01  1.97107171727727E+00
(PID.TID 0000.0001)  ploadbar=  1.01042408223269E+05
 cg2d: Sum(rhs),rhsMax =  -7.59036576064232E+01  1.96163040524857E+00
(PID.TID 0000.0001)  ploadbar=  1.01042047312620E+05
 cg2d: Sum(rhs),rhsMax =  -7.61676413531077E+01  1.95475785515588E+00
(PID.TID 0000.0001)  ploadbar=  1.01041686401972E+05
 cg2d: Sum(rhs),rhsMax =  -7.64435598172233E+01  1.94764273805379E+00
(PID.TID 0000.0001)  ploadbar=  1.01042724808462E+05
 cg2d: Sum(rhs),rhsMax =  -7.66669473010481E+01  1.94191725203467E+00
(PID.TID 0000.0001)  ploadbar=  1.01043763214952E+05
 cg2d: Sum(rhs),rhsMax =  -7.68380564615151E+01  1.93754669321724E+00
(PID.TID 0000.0001)  ploadbar=  1.01044801621441E+05
 cg2d: Sum(rhs),rhsMax =  -7.69789110983559E+01  1.93395401943438E+00
(PID.TID 0000.0001)  ploadbar=  1.01045840027931E+05
 cg2d: Sum(rhs),rhsMax =  -7.70957924025528E+01  1.93096749667835E+00
(PID.TID 0000.0001)  ploadbar=  1.01046878434421E+05
 cg2d: Sum(rhs),rhsMax =  -7.71951543689588E+01  1.92841294528217E+00
(PID.TID 0000.0001)  ploadbar=  1.01047916840911E+05
 cg2d: Sum(rhs),rhsMax =  -7.72593069340961E+01  1.92676100319242E+00
(PID.TID 0000.0001)  ploadbar=  1.01046605796567E+05
 cg2d: Sum(rhs),rhsMax =  -7.73025796066478E+01  1.92564328192556E+00
(PID.TID 0000.0001)  ploadbar=  1.01045294752223E+05
 cg2d: Sum(rhs),rhsMax =  -7.73382773199641E+01  1.92472285997721E+00
(PID.TID 0000.0001)  ploadbar=  1.01043983707879E+05
 cg2d: Sum(rhs),rhsMax =  -7.73842416463848E+01  1.92354779287921E+00
(PID.TID 0000.0001)  ploadbar=  1.01042672663535E+05
 cg2d: Sum(rhs),rhsMax =  -7.74746465615479E+01  1.92126867087427E+00
(PID.TID 0000.0001)  ploadbar=  1.01041361619191E+05
 cg2d: Sum(rhs),rhsMax =  -7.76422112027548E+01  1.91707660064614E+00
(PID.TID 0000.0001)  ploadbar=  1.01040050574847E+05
 cg2d: Sum(rhs),rhsMax =  -7.78493334283170E+01  1.91198164735652E+00
(PID.TID 0000.0001)  ploadbar=  1.01038749866545E+05
 cg2d: Sum(rhs),rhsMax =  -7.81219746330209E+01  1.90535459619569E+00
(PID.TID 0000.0001)  ploadbar=  1.01037449158243E+05
 cg2d: Sum(rhs),rhsMax =  -7.84324495758897E+01  1.89789099863173E+00
(PID.TID 0000.0001)  ploadbar=  1.01036148449942E+05
 cg2d: Sum(rhs),rhsMax =  -7.87693912775943E+01  1.88988277067462E+00
(PID.TID 0000.0001)  ploadbar=  1.01034847741640E+05
 cg2d: Sum(rhs),rhsMax =  -7.91220280817661E+01  1.88160320940196E+00
(PID.TID 0000.0001)  ploadbar=  1.01033547033338E+05
 cg2d: Sum(rhs),rhsMax =  -7.94721627105284E+01  1.87349524441662E+00
(PID.TID 0000.0001)  ploadbar=  1.01032246325037E+05
 cg2d: Sum(rhs),rhsMax =  -7.98101654644309E+01  1.86573946900672E+00
(PID.TID 0000.0001)  ploadbar=  1.01030820900699E+05
 cg2d: Sum(rhs),rhsMax =  -8.01411341706780E+01  1.85819585231878E+00
(PID.TID 0000.0001)  ploadbar=  1.01029395476362E+05
 cg2d: Sum(rhs),rhsMax =  -8.04884787229914E+01  1.85031406650427E+00
(PID.TID 0000.0001)  ploadbar=  1.01027970052025E+05
 cg2d: Sum(rhs),rhsMax =  -8.08528056942317E+01  1.84208516089276E+00
(PID.TID 0000.0001)  ploadbar=  1.01026544627688E+05
 cg2d: Sum(rhs),rhsMax =  -8.12490156437476E+01  1.83318158772191E+00
(PID.TID 0000.0001)  ploadbar=  1.01025119203351E+05
 cg2d: Sum(rhs),rhsMax =  -8.16983869914971E+01  1.82314585134560E+00
(PID.TID 0000.0001)  ploadbar=  1.01023693779014E+05
 cg2d: Sum(rhs),rhsMax =  -8.22382848276760E+01  1.81124458650049E+00
(PID.TID 0000.0001)  ploadbar=  1.01022189259998E+05
 cg2d: Sum(rhs),rhsMax =  -8.28735756466224E+01  1.79744340746826E+00
(PID.TID 0000.0001)  ploadbar=  1.01020684740981E+05
 cg2d: Sum(rhs),rhsMax =  -8.36135103653592E+01  1.78163541207905E+00
(PID.TID 0000.0001)  ploadbar=  1.01019180221964E+05
 cg2d: Sum(rhs),rhsMax =  -8.44637815075309E+01  1.76381035563884E+00
(PID.TID 0000.0001)  ploadbar=  1.01017675702948E+05
 cg2d: Sum(rhs),rhsMax =  -8.54036458514105E+01  1.74451592212602E+00
(PID.TID 0000.0001)  ploadbar=  1.01016171183931E+05
 cg2d: Sum(rhs),rhsMax =  -8.64158049368550E+01  1.72419909790161E+00
(PID.TID 0000.0001)  ploadbar=  1.01014666664915E+05
 cg2d: Sum(rhs),rhsMax =  -8.73673108475798E+01  1.70551558354497E+00
(PID.TID 0000.0001)  ploadbar=  1.01012914660949E+05
 cg2d: Sum(rhs),rhsMax =  -8.83112046874018E+01  1.68735312007512E+00
(PID.TID 0000.0001)  ploadbar=  1.01011162656984E+05
 cg2d: Sum(rhs),rhsMax =  -8.91844682839455E+01  1.67086240130162E+00
(PID.TID 0000.0001)  ploadbar=  1.01009410653019E+05
 cg2d: Sum(rhs),rhsMax =  -8.99671531153802E+01  1.65631686167339E+00
(PID.TID 0000.0001)  ploadbar=  1.01007658649054E+05
 cg2d: Sum(rhs),rhsMax =  -9.06539183726132E+01  1.64371687971343E+00
(PID.TID 0000.0001)  ploadbar=  1.01005906645089E+05
 cg2d: Sum(rhs),rhsMax =  -9.12486905046955E+01  1.63290493515381E+00
(PID.TID 0000.0001)  ploadbar=  1.01004154641124E+05
 cg2d: Sum(rhs),rhsMax =  -9.18772599957320E+01  1.62168769175287E+00
(PID.TID 0000.0001)  ploadbar=  1.01003065347118E+05
 cg2d: Sum(rhs),rhsMax =  -9.24777017806816E+01  1.61115399671597E+00
(PID.TID 0000.0001)  ploadbar=  1.01001976053113E+05
 cg2d: Sum(rhs),rhsMax =  -9.30730648927988E+01  1.60087926184594E+00
(PID.TID 0000.0001)  ploadbar=  1.01000886759108E+05
 cg2d: Sum(rhs),rhsMax =  -9.36695342809786E+01  1.59075007518128E+00
(PID.TID 0000.0001)  ploadbar=  1.00999797465103E+05
 cg2d: Sum(rhs),rhsMax =  -9.42772964757478E+01  1.58059117672126E+00
(PID.TID 0000.0001)  ploadbar=  1.00998708171097E+05
 cg2d: Sum(rhs),rhsMax =  -9.48979031238555E+01  1.57038323492654E+00
(PID.TID 0000.0001)  ploadbar=  1.00997618877092E+05
 cg2d: Sum(rhs),rhsMax =  -9.56173953047352E+01  1.55869960210120E+00
(PID.TID 0000.0001)  ploadbar=  1.00996661748226E+05
 cg2d: Sum(rhs),rhsMax =  -9.63928524282381E+01  1.54627974472644E+00
(PID.TID 0000.0001)  ploadbar=  1.00995704619361E+05
 cg2d: Sum(rhs),rhsMax =  -9.72366917420562E+01  1.53296345256702E+00
(PID.TID 0000.0001)  ploadbar=  1.00994747490495E+05
 cg2d: Sum(rhs),rhsMax =  -9.81255111169700E+01  1.51916057358783E+00
(PID.TID 0000.0001)  ploadbar=  1.00993790361629E+05
 cg2d: Sum(rhs),rhsMax =  -9.90806498873388E+01  1.50457575938120E+00
(PID.TID 0000.0001)  ploadbar=  1.00992833232764E+05
 cg2d: Sum(rhs),rhsMax =  -1.00135226473182E+02  1.48876739311706E+00
(PID.TID 0000.0001)  ploadbar=  1.00991876103898E+05
 cg2d: Sum(rhs),rhsMax =  -1.01242693905878E+02  1.47253106145290E+00
(PID.TID 0000.0001)  ploadbar=  1.00990845401296E+05
 cg2d: Sum(rhs),rhsMax =  -1.02536649880998E+02  1.45400519282346E+00
(PID.TID 0000.0001)  ploadbar=  1.00989814698695E+05
 cg2d: Sum(rhs),rhsMax =  -1.04049517319296E+02  1.43292850082979E+00
(PID.TID 0000.0001)  ploadbar=  1.00988783996093E+05
 cg2d: Sum(rhs),rhsMax =  -1.05768156800288E+02  1.40971349191801E+00
(PID.TID 0000.0001)  ploadbar=  1.00987753293491E+05
 cg2d: Sum(rhs),rhsMax =  -1.07670629721804E+02  1.38487299779015E+00
(PID.TID 0000.0001)  ploadbar=  1.00986722590890E+05
 cg2d: Sum(rhs),rhsMax =  -1.09741195583655E+02  1.35880920246133E+00
(PID.TID 0000.0001)  ploadbar=  1.00985691888288E+05
 cg2d: Sum(rhs),rhsMax =  -1.11381778549150E+02  1.33887322432803E+00
(PID.TID 0000.0001)  ploadbar=  1.00986061934545E+05
 cg2d: Sum(rhs),rhsMax =  -1.11554602726673E+02  1.33688701979207E+00
(PID.TID 0000.0001)  ploadbar=  1.00986431980802E+05
 cg2d: Sum(rhs),rhsMax =  -1.11730095155296E+02  1.33488163335938E+00
(PID.TID 0000.0001)  ploadbar=  1.00986802027059E+05
 cg2d: Sum(rhs),rhsMax =  -1.11920196951700E+02  1.33271180912408E+00
(PID.TID 0000.0001)  ploadbar=  1.00987172073316E+05
 cg2d: Sum(rhs),rhsMax =  -1.12121002167165E+02  1.33041974944807E+00
(PID.TID 0000.0001)  ploadbar=  1.00987542119573E+05
 cg2d: Sum(rhs),rhsMax =  -1.12332312263519E+02  1.32800700313955E+00
(PID.TID 0000.0001)  ploadbar=  1.00987912165830E+05
 cg2d: Sum(rhs),rhsMax =  -1.12575260517794E+02  1.32526131608417E+00
(PID.TID 0000.0001)  ploadbar=  1.00988162008133E+05
 cg2d: Sum(rhs),rhsMax =  -1.12847997372938E+02  1.32219866656896E+00
(PID.TID 0000.0001)  ploadbar=  1.00988411850435E+05
 cg2d: Sum(rhs),rhsMax =  -1.13127529247152E+02  1.31908645826609E+00
(PID.TID 0000.0001)  ploadbar=  1.00988661692737E+05
 cg2d: Sum(rhs),rhsMax =  -1.13430654511226E+02  1.31572706473914E+00
(PID.TID 0000.0001)  ploadbar=  1.00988911535039E+05
 cg2d: Sum(rhs),rhsMax =  -1.13773647798760E+02  1.31193605571269E+00
(PID.TID 0000.0001)  ploadbar=  1.00989161377341E+05
 cg2d: Sum(rhs),rhsMax =  -1.14155951740707E+02  1.30772778496632E+00
(PID.TID 0000.0001)  ploadbar=  1.00989411219643E+05
 cg2d: Sum(rhs),rhsMax =  -1.14598660942534E+02  1.30283259045564E+00
(PID.TID 0000.0001)  ploadbar=  1.00989163973212E+05
 cg2d: Sum(rhs),rhsMax =  -1.15104013001088E+02  1.29723453032782E+00
(PID.TID 0000.0001)      cg2d_init_res =   2.99132747102891E-01
(PID.TID 0000.0001)      cg2d_iters(min,last) =      -1     141
(PID.TID 0000.0001)      cg2d_last_res =   8.79725919348474E-08
(PID.TID 0000.0001) // =======================================================
(PID.TID 0000.0001) // Begin MONITOR dynamic field statistics
(PID.TID 0000.0001) // =======================================================
(PID.TID 0000.0001) %MON time_tsnumber                =                  7008
(PID.TID 0000.0001) %MON time_secondsf                =   2.5228800000000E+07
(PID.TID 0000.0001) %MON dynstat_eta_max              =   1.1589400768979E+00
(PID.TID 0000.0001) %MON dynstat_eta_min              =  -5.6498718176096E+00
(PID.TID 0000.0001) %MON dynstat_eta_mean             =   7.5573927060241E-02
(PID.TID 0000.0001) %MON dynstat_eta_sd               =   7.2837779381062E-01
(PID.TID 0000.0001) %MON dynstat_eta_del2             =   1.9345790219134E-04
(PID.TID 0000.0001) %MON dynstat_uvel_max             =   1.3413559268279E+00
(PID.TID 0000.0001) %MON dynstat_uvel_min             =  -1.2237694607345E+00
(PID.TID 0000.0001) %MON dynstat_uvel_mean            =   1.3358670682713E-03
(PID.TID 0000.0001) %MON dynstat_uvel_sd              =   2.0840537278831E-02
(PID.TID 0000.0001) %MON dynstat_uvel_del2            =   8.6601847353129E-06
(PID.TID 0000.0001) %MON dynstat_vvel_max             =   6.8121263740770E-01
(PID.TID 0000.0001) %MON dynstat_vvel_min             =  -8.6595723205894E-01
(PID.TID 0000.0001) %MON dynstat_vvel_mean            =   1.2408651459818E-03
(PID.TID 0000.0001) %MON dynstat_vvel_sd              =   2.1582286035803E-02
(PID.TID 0000.0001) %MON dynstat_vvel_del2            =   8.9801624821683E-06
(PID.TID 0000.0001) %MON dynstat_wvel_max             =   3.3893791308585E-04
(PID.TID 0000.0001) %MON dynstat_wvel_min             =  -1.4443689857571E-03
(PID.TID 0000.0001) %MON dynstat_wvel_mean            =   3.6041871637633E-09
(PID.TID 0000.0001) %MON dynstat_wvel_sd              =   2.0099752888941E-05
(PID.TID 0000.0001) %MON dynstat_wvel_del2            =   1.6274927650739E-08
(PID.TID 0000.0001) %MON dynstat_theta_max            =   3.2643193565996E+01
(PID.TID 0000.0001) %MON dynstat_theta_min            =  -1.9731303781481E+00
(PID.TID 0000.0001) %MON dynstat_theta_mean           =   3.5774196276414E+00
(PID.TID 0000.0001) %MON dynstat_theta_sd             =   4.4258657435292E+00
(PID.TID 0000.0001) %MON dynstat_theta_del2           =   8.9613469681939E-05
(PID.TID 0000.0001) %MON dynstat_salt_max             =   4.0641866305635E+01
(PID.TID 0000.0001) %MON dynstat_salt_min             =   2.2083373713511E+01
(PID.TID 0000.0001) %MON dynstat_salt_mean            =   3.4726951263879E+01
(PID.TID 0000.0001) %MON dynstat_salt_sd              =   3.8020285922313E-01
(PID.TID 0000.0001) %MON dynstat_salt_del2            =   1.9446886552472E-05
(PID.TID 0000.0001) %MON dynstat_sst_max              =   3.1692917725575E+01
(PID.TID 0000.0001) %MON dynstat_sst_min              =  -1.9605425078478E+00
(PID.TID 0000.0001) %MON dynstat_sst_mean             =   1.7927857816065E+01
(PID.TID 0000.0001) %MON dynstat_sst_sd               =   1.0289809455960E+01
(PID.TID 0000.0001) %MON dynstat_sst_del2             =   5.5687574211898E-04
(PID.TID 0000.0001) %MON dynstat_sss_max              =   3.9865576109120E+01
(PID.TID 0000.0001) %MON dynstat_sss_min              =   2.2083373713511E+01
(PID.TID 0000.0001) %MON dynstat_sss_mean             =   3.4704899528544E+01
(PID.TID 0000.0001) %MON dynstat_sss_sd               =   1.3112372844875E+00
(PID.TID 0000.0001) %MON dynstat_sss_del2             =   2.9275964568719E-04
(PID.TID 0000.0001) %MON forcing_qnet_max             =   7.4619330106621E+02
(PID.TID 0000.0001) %MON forcing_qnet_min             =  -5.7329655829098E+02
(PID.TID 0000.0001) %MON forcing_qnet_mean            =   1.6248793718023E+01
(PID.TID 0000.0001) %MON forcing_qnet_sd              =   1.8914805874748E+02
(PID.TID 0000.0001) %MON forcing_qnet_del2            =   9.3108816792668E-02
(PID.TID 0000.0001) %MON forcing_qsw_max              =   5.6509998509494E+01
(PID.TID 0000.0001) %MON forcing_qsw_min              =  -6.3357070972712E+02
(PID.TID 0000.0001) %MON forcing_qsw_mean             =  -1.4914748379911E+02
(PID.TID 0000.0001) %MON forcing_qsw_sd               =   1.6783895000023E+02
(PID.TID 0000.0001) %MON forcing_qsw_del2             =   5.5655364902187E-02
(PID.TID 0000.0001) %MON forcing_empmr_max            =   1.1774499243167E-03
(PID.TID 0000.0001) %MON forcing_empmr_min            =  -3.5220237401414E-03
(PID.TID 0000.0001) %MON forcing_empmr_mean           =  -2.0297001879877E-06
(PID.TID 0000.0001) %MON forcing_empmr_sd             =   9.6793445509509E-05
(PID.TID 0000.0001) %MON forcing_empmr_del2           =   2.5543557065163E-07
(PID.TID 0000.0001) %MON forcing_fu_max               =   1.0005438327789E+00
(PID.TID 0000.0001) %MON forcing_fu_min               =  -1.8907892505328E+00
(PID.TID 0000.0001) %MON forcing_fu_mean              =   1.0335116144298E-02
(PID.TID 0000.0001) %MON forcing_fu_sd                =   1.2571075353277E-01
(PID.TID 0000.0001) %MON forcing_fu_del2              =   8.6260466079514E-05
(PID.TID 0000.0001) %MON forcing_fv_max               =   7.1958143815570E-01
(PID.TID 0000.0001) %MON forcing_fv_min               =  -1.3043932995431E+00
(PID.TID 0000.0001) %MON forcing_fv_mean              =   5.6983459277886E-03
(PID.TID 0000.0001) %MON forcing_fv_sd                =   1.2345954453599E-01
(PID.TID 0000.0001) %MON forcing_fv_del2              =   6.7001647658376E-05
(PID.TID 0000.0001) %MON trAdv_CFL_u_max              =   6.4883619727704E-02
(PID.TID 0000.0001) %MON trAdv_CFL_v_max              =   5.2207148614628E-02
(PID.TID 0000.0001) %MON trAdv_CFL_w_max              =   1.3253661059044E-01
(PID.TID 0000.0001) %MON advcfl_uvel_max              =   6.8588326692385E-02
(PID.TID 0000.0001) %MON advcfl_vvel_max              =   5.1372291054126E-02
(PID.TID 0000.0001) %MON advcfl_wvel_max              =   1.3602585109504E-01
(PID.TID 0000.0001) %MON advcfl_W_hf_max              =   1.4151127168832E-01
(PID.TID 0000.0001) %MON pe_b_mean                    =   2.4680346754928E-03
(PID.TID 0000.0001) %MON ke_max                       =   9.0169331843576E-01
(PID.TID 0000.0001) %MON ke_mean                      =   4.3563656479912E-04
(PID.TID 0000.0001) %MON ke_vol                       =   1.3350249309105E+18
(PID.TID 0000.0001) %MON vort_r_min                   =  -2.1356795700062E-05
(PID.TID 0000.0001) %MON vort_r_max                   =   2.4622120368536E-05
(PID.TID 0000.0001) %MON vort_a_mean                  =  -1.9727724792312E-05
(PID.TID 0000.0001) %MON vort_a_sd                    =   7.4542998739796E-05
(PID.TID 0000.0001) %MON vort_p_mean                  =  -2.1759895277428E-05
(PID.TID 0000.0001) %MON vort_p_sd                    =   9.7241690155047E-05
(PID.TID 0000.0001) %MON surfExpan_theta_mean         =  -1.7619325711816E-07
(PID.TID 0000.0001) %MON surfExpan_salt_mean          =  -1.7060893934400E-08
(PID.TID 0000.0001) // =======================================================
(PID.TID 0000.0001) // End MONITOR dynamic field statistics
(PID.TID 0000.0001) // =======================================================
(PID.TID 0000.0001)  ploadbar=  1.00988916726780E+05
(PID.TID 0000.0001) %SBO sbo_mass                     =   1.3737612059018E+21
(PID.TID 0000.0001) %SBO sbo_mass_fw                  =   4.8390531312184E+16
(PID.TID 0000.0001) %SBO sbo_zoamc                    =   1.2629509910447E+25
(PID.TID 0000.0001) %SBO sbo_zoamp                    =   2.9276715637217E+30
(PID.TID 0000.0001) // =======================================================
(PID.TID 0000.0001) // Begin MONITOR SEAICE statistics
(PID.TID 0000.0001) // =======================================================
(PID.TID 0000.0001) %MON seaice_tsnumber              =                  7008
(PID.TID 0000.0001) %MON seaice_time_sec              =   2.5228800000000E+07
(PID.TID 0000.0001) %MON seaice_uice_max              =   4.0000000000000E-01
(PID.TID 0000.0001) %MON seaice_uice_min              =  -4.0000000000000E-01
(PID.TID 0000.0001) %MON seaice_uice_mean             =   9.4301043139919E-03
(PID.TID 0000.0001) %MON seaice_uice_sd               =   1.6728457724548E-01
(PID.TID 0000.0001) %MON seaice_uice_del2             =   1.5085408971340E-04
(PID.TID 0000.0001) %MON seaice_vice_max              =   4.0000000000000E-01
(PID.TID 0000.0001) %MON seaice_vice_min              =  -4.0000000000000E-01
(PID.TID 0000.0001) %MON seaice_vice_mean             =  -5.3500562729951E-03
(PID.TID 0000.0001) %MON seaice_vice_sd               =   1.9001587827678E-01
(PID.TID 0000.0001) %MON seaice_vice_del2             =   1.4288644767687E-04
(PID.TID 0000.0001) %MON seaice_area_max              =   9.7000000000000E-01
(PID.TID 0000.0001) %MON seaice_area_min              =   0.0000000000000E+00
(PID.TID 0000.0001) %MON seaice_area_mean             =   6.9869128290158E-02
(PID.TID 0000.0001) %MON seaice_area_sd               =   2.4083699725633E-01
(PID.TID 0000.0001) %MON seaice_area_del2             =   2.2009759519604E-04
(PID.TID 0000.0001) %MON seaice_heff_max              =   4.6459220000622E+00
(PID.TID 0000.0001) %MON seaice_heff_min              =   0.0000000000000E+00
(PID.TID 0000.0001) %MON seaice_heff_mean             =   5.8891637964013E-02
(PID.TID 0000.0001) %MON seaice_heff_sd               =   2.6089808969588E-01
(PID.TID 0000.0001) %MON seaice_heff_del2             =   1.9321136636855E-04
(PID.TID 0000.0001) %MON seaice_hsnow_max             =   1.5881714510107E+00
(PID.TID 0000.0001) %MON seaice_hsnow_min             =  -6.7372345129775E-05
(PID.TID 0000.0001) %MON seaice_hsnow_mean            =   1.1536021429306E-02
(PID.TID 0000.0001) %MON seaice_hsnow_sd              =   5.4113985447383E-02
(PID.TID 0000.0001) %MON seaice_hsnow_del2            =   5.3656044390029E-05
(PID.TID 0000.0001) // =======================================================
(PID.TID 0000.0001) // End MONITOR SEAICE statistics
(PID.TID 0000.0001) // =======================================================
(PID.TID 0000.0001) // =======================================================
(PID.TID 0000.0001) // Begin MONITOR EXF statistics
(PID.TID 0000.0001) // =======================================================
(PID.TID 0000.0001) %MON exf_tsnumber                 =                  7008
(PID.TID 0000.0001) %MON exf_time_sec                 =   2.5228800000000E+07
(PID.TID 0000.0001) %MON exf_ustress_max              =   1.0047499537468E+00
(PID.TID 0000.0001) %MON exf_ustress_min              =  -2.0063149929047E+00
(PID.TID 0000.0001) %MON exf_ustress_mean             =   1.0097171908583E-02
(PID.TID 0000.0001) %MON exf_ustress_sd               =   1.2749516565533E-01
(PID.TID 0000.0001) %MON exf_ustress_del2             =   1.1548911405615E-04
(PID.TID 0000.0001) %MON exf_vstress_max              =   7.2830842863394E-01
(PID.TID 0000.0001) %MON exf_vstress_min              =  -1.5375439753135E+00
(PID.TID 0000.0001) %MON exf_vstress_mean             =   5.4688154165056E-03
(PID.TID 0000.0001) %MON exf_vstress_sd               =   1.2497972782644E-01
(PID.TID 0000.0001) %MON exf_vstress_del2             =   8.4659609307856E-05
(PID.TID 0000.0001) %MON exf_hflux_max                =   1.1076389500789E+03
(PID.TID 0000.0001) %MON exf_hflux_min                =  -4.5575298095065E+02
(PID.TID 0000.0001) %MON exf_hflux_mean               =   2.1659582437860E+01
(PID.TID 0000.0001) %MON exf_hflux_sd                 =   1.9888527376892E+02
(PID.TID 0000.0001) %MON exf_hflux_del2               =   4.6223751029075E-01
(PID.TID 0000.0001) %MON exf_sflux_max                =   2.3042408034756E-07
(PID.TID 0000.0001) %MON exf_sflux_min                =  -3.0713210986133E-06
(PID.TID 0000.0001) %MON exf_sflux_mean               =  -1.7030130881238E-12
(PID.TID 0000.0001) %MON exf_sflux_sd                 =   8.6567926488770E-08
(PID.TID 0000.0001) %MON exf_sflux_del2               =   2.4031766220429E-10
(PID.TID 0000.0001) %MON exf_wspeed_max               =   2.4265119552612E+01
(PID.TID 0000.0001) %MON exf_wspeed_min               =   4.4450447708368E-01
(PID.TID 0000.0001) %MON exf_wspeed_mean              =   7.2316298758546E+00
(PID.TID 0000.0001) %MON exf_wspeed_sd                =   3.3597543484569E+00
(PID.TID 0000.0001) %MON exf_wspeed_del2              =   1.7815875694180E-02
(PID.TID 0000.0001) %MON exf_atemp_max                =   3.0570972576141E+02
(PID.TID 0000.0001) %MON exf_atemp_min                =   2.2757535018921E+02
(PID.TID 0000.0001) %MON exf_atemp_mean               =   2.8902992066914E+02
(PID.TID 0000.0001) %MON exf_atemp_sd                 =   1.1608409299003E+01
(PID.TID 0000.0001) %MON exf_atemp_del2               =   3.4598872584277E-02
(PID.TID 0000.0001) %MON exf_aqh_max                  =   2.0970256067812E-02
(PID.TID 0000.0001) %MON exf_aqh_min                  =   1.4266483776737E-04
(PID.TID 0000.0001) %MON exf_aqh_mean                 =   1.0644742071239E-02
(PID.TID 0000.0001) %MON exf_aqh_sd                   =   5.6427373597676E-03
(PID.TID 0000.0001) %MON exf_aqh_del2                 =   2.0074560676555E-05
(PID.TID 0000.0001) %MON exf_lwflux_max               =   2.3090205017290E+02
(PID.TID 0000.0001) %MON exf_lwflux_min               =  -2.0720674420510E+01
(PID.TID 0000.0001) %MON exf_lwflux_mean              =   4.7140443007859E+01
(PID.TID 0000.0001) %MON exf_lwflux_sd                =   2.5318220884972E+01
(PID.TID 0000.0001) %MON exf_lwflux_del2              =   1.2223644646878E-01
(PID.TID 0000.0001) %MON exf_evap_max                 =   2.4427781152619E-07
(PID.TID 0000.0001) %MON exf_evap_min                 =  -1.6610784986792E-08
(PID.TID 0000.0001) %MON exf_evap_mean                =   4.3751166879730E-08
(PID.TID 0000.0001) %MON exf_evap_sd                  =   2.7360579385664E-08
(PID.TID 0000.0001) %MON exf_evap_del2                =   9.6810529322301E-11
(PID.TID 0000.0001) %MON exf_precip_max               =   3.1084255738278E-06
(PID.TID 0000.0001) %MON exf_precip_min               =  -2.1812001094190E-08
(PID.TID 0000.0001) %MON exf_precip_mean              =   4.0736930161533E-08
(PID.TID 0000.0001) %MON exf_precip_sd                =   8.0019987580677E-08
(PID.TID 0000.0001) %MON exf_precip_del2              =   2.4189200912047E-10
(PID.TID 0000.0001) %MON exf_swflux_max               =   9.9558839313984E+01
(PID.TID 0000.0001) %MON exf_swflux_min               =  -5.7580650567899E+02
(PID.TID 0000.0001) %MON exf_swflux_mean              =  -1.6060400251320E+02
(PID.TID 0000.0001) %MON exf_swflux_sd                =   1.6082565587051E+02
(PID.TID 0000.0001) %MON exf_swflux_del2              =   4.1885008611052E-01
(PID.TID 0000.0001) %MON exf_swdown_max               =   6.2065512084961E+02
(PID.TID 0000.0001) %MON exf_swdown_min               =  -1.4132811737061E+02
(PID.TID 0000.0001) %MON exf_swdown_mean              =   1.7408854725968E+02
(PID.TID 0000.0001) %MON exf_swdown_sd                =   1.7400223954535E+02
(PID.TID 0000.0001) %MON exf_swdown_del2              =   4.5526175215700E-01
(PID.TID 0000.0001) %MON exf_lwdown_max               =   4.6679513549805E+02
(PID.TID 0000.0001) %MON exf_lwdown_min               =   6.8630306243896E+01
(PID.TID 0000.0001) %MON exf_lwdown_mean              =   3.6143161760701E+02
(PID.TID 0000.0001) %MON exf_lwdown_sd                =   6.1588113292250E+01
(PID.TID 0000.0001) %MON exf_lwdown_del2              =   6.8900077236587E-01
(PID.TID 0000.0001) %MON exf_apressure_max            =   1.0339980859375E+05
(PID.TID 0000.0001) %MON exf_apressure_min            =   9.4313593750000E+04
(PID.TID 0000.0001) %MON exf_apressure_mean           =   1.0098866948035E+05
(PID.TID 0000.0001) %MON exf_apressure_sd             =   1.1915242315822E+03
(PID.TID 0000.0001) %MON exf_apressure_del2           =   2.0648933606451E+02
(PID.TID 0000.0001) %MON exf_runoff_max               =   9.3245055585031E-07
(PID.TID 0000.0001) %MON exf_runoff_min               =   0.0000000000000E+00
(PID.TID 0000.0001) %MON exf_runoff_mean              =   3.0159397312850E-09
(PID.TID 0000.0001) %MON exf_runoff_sd                =   1.6428556549052E-08
(PID.TID 0000.0001) %MON exf_runoff_del2              =   4.0148971163064E-11
(PID.TID 0000.0001) // =======================================================
(PID.TID 0000.0001) // End MONITOR EXF statistics
(PID.TID 0000.0001) // =======================================================
 cg2d: Sum(rhs),rhsMax =  -1.15662528766363E+02  1.29105358594351E+00
(PID.TID 0000.0001)  ploadbar=  1.00988669480348E+05
 cg2d: Sum(rhs),rhsMax =  -1.16274835673168E+02  1.28429577092107E+00
(PID.TID 0000.0001)  ploadbar=  1.00988422233916E+05
 cg2d: Sum(rhs),rhsMax =  -1.16953810485956E+02  1.27683856792227E+00
(PID.TID 0000.0001)  ploadbar=  1.00988174987484E+05
 cg2d: Sum(rhs),rhsMax =  -1.17705893280218E+02  1.26863735315125E+00
(PID.TID 0000.0001)  ploadbar=  1.00987927741052E+05
 cg2d: Sum(rhs),rhsMax =  -1.18549762061956E+02  1.25956663448676E+00
(PID.TID 0000.0001)  ploadbar=  1.00988429280131E+05
 cg2d: Sum(rhs),rhsMax =  -1.19467336800114E+02  1.24984923247656E+00
(PID.TID 0000.0001)  ploadbar=  1.00988930819210E+05
 cg2d: Sum(rhs),rhsMax =  -1.20437256362944E+02  1.23973640824174E+00
(PID.TID 0000.0001)  ploadbar=  1.00989432358288E+05
 cg2d: Sum(rhs),rhsMax =  -1.21413791998910E+02  1.22971001430682E+00
(PID.TID 0000.0001)  ploadbar=  1.00989933897367E+05
 cg2d: Sum(rhs),rhsMax =  -1.22348395604335E+02  1.22025002541868E+00
(PID.TID 0000.0001)  ploadbar=  1.00990435436446E+05
 cg2d: Sum(rhs),rhsMax =  -1.23187325240332E+02  1.21185874057749E+00
(PID.TID 0000.0001)  ploadbar=  1.00990936975524E+05
 cg2d: Sum(rhs),rhsMax =  -1.23796977877941E+02  1.20580493669509E+00
(PID.TID 0000.0001)  ploadbar=  1.00992051195665E+05
 cg2d: Sum(rhs),rhsMax =  -1.24227746229249E+02  1.20152825759396E+00
(PID.TID 0000.0001)  ploadbar=  1.00993165415806E+05
 cg2d: Sum(rhs),rhsMax =  -1.24508306456778E+02  1.19871107363576E+00
(PID.TID 0000.0001)  ploadbar=  1.00994279635946E+05
 cg2d: Sum(rhs),rhsMax =  -1.24672465992314E+02  1.19700500707941E+00
(PID.TID 0000.0001)  ploadbar=  1.00995393856087E+05
 cg2d: Sum(rhs),rhsMax =  -1.24799055176419E+02  1.19564063099462E+00
(PID.TID 0000.0001)  ploadbar=  1.00996508076228E+05
 cg2d: Sum(rhs),rhsMax =  -1.24999739712094E+02  1.19354490039555E+00
(PID.TID 0000.0001)  ploadbar=  1.00997622296369E+05
 cg2d: Sum(rhs),rhsMax =  -1.25169438737071E+02  1.19178559094565E+00
(PID.TID 0000.0001)  ploadbar=  1.00998187898342E+05
 cg2d: Sum(rhs),rhsMax =  -1.25329257558788E+02  1.19015361717936E+00
(PID.TID 0000.0001)  ploadbar=  1.00998753500315E+05
 cg2d: Sum(rhs),rhsMax =  -1.25500070835175E+02  1.18844506342600E+00
(PID.TID 0000.0001)  ploadbar=  1.00999319102288E+05
 cg2d: Sum(rhs),rhsMax =  -1.25729785440590E+02  1.18620486000126E+00
(PID.TID 0000.0001)  ploadbar=  1.00999884704262E+05
 cg2d: Sum(rhs),rhsMax =  -1.26016454407204E+02  1.18345596550252E+00
(PID.TID 0000.0001)  ploadbar=  1.01000450306235E+05
 cg2d: Sum(rhs),rhsMax =  -1.26397869132708E+02  1.17985083469253E+00
(PID.TID 0000.0001)  ploadbar=  1.01001015908208E+05
 cg2d: Sum(rhs),rhsMax =  -1.26895580343647E+02  1.17517613677330E+00
(PID.TID 0000.0001)  ploadbar=  1.01002138672761E+05
 cg2d: Sum(rhs),rhsMax =  -1.27489738467973E+02  1.16963386511761E+00
(PID.TID 0000.0001)  ploadbar=  1.01003261437314E+05
 cg2d: Sum(rhs),rhsMax =  -1.28223618902089E+02  1.16285198216192E+00
(PID.TID 0000.0001)  ploadbar=  1.01004384201867E+05
 cg2d: Sum(rhs),rhsMax =  -1.29150882846175E+02  1.15439134970173E+00
(PID.TID 0000.0001)  ploadbar=  1.01005506966420E+05
 cg2d: Sum(rhs),rhsMax =  -1.30358562097883E+02  1.14356086774094E+00
(PID.TID 0000.0001)  ploadbar=  1.01006629730973E+05
 cg2d: Sum(rhs),rhsMax =  -1.31948324611319E+02  1.12962350238693E+00
(PID.TID 0000.0001)  ploadbar=  1.01007752495526E+05
 cg2d: Sum(rhs),rhsMax =  -1.33966198777160E+02  1.11247011908425E+00
(PID.TID 0000.0001)  ploadbar=  1.01009056510800E+05
 cg2d: Sum(rhs),rhsMax =  -1.36162640236889E+02  1.09440147825104E+00
(PID.TID 0000.0001)  ploadbar=  1.01010360526074E+05
 cg2d: Sum(rhs),rhsMax =  -1.38405142045706E+02  1.07655682105994E+00
(PID.TID 0000.0001)  ploadbar=  1.01011664541348E+05
 cg2d: Sum(rhs),rhsMax =  -1.40670112049232E+02  1.05911731674047E+00
(PID.TID 0000.0001)  ploadbar=  1.01012968556622E+05
 cg2d: Sum(rhs),rhsMax =  -1.42878489268985E+02  1.04264543448891E+00
(PID.TID 0000.0001)  ploadbar=  1.01014272571897E+05
 cg2d: Sum(rhs),rhsMax =  -1.44918208743655E+02  1.02786819750401E+00
(PID.TID 0000.0001)  ploadbar=  1.01015576587171E+05
 cg2d: Sum(rhs),rhsMax =  -1.46228177427525E+02  1.01854537908803E+00
(PID.TID 0000.0001)  ploadbar=  1.01017210305613E+05
 cg2d: Sum(rhs),rhsMax =  -1.46205768736255E+02  1.01857048552714E+00
(PID.TID 0000.0001)  ploadbar=  1.01018844024056E+05
 cg2d: Sum(rhs),rhsMax =  -1.46227137669960E+02  1.01827071274735E+00
(PID.TID 0000.0001)  ploadbar=  1.01020477742499E+05
 cg2d: Sum(rhs),rhsMax =  -1.46293887055240E+02  1.01763040386949E+00
(PID.TID 0000.0001)  ploadbar=  1.01022111460942E+05
 cg2d: Sum(rhs),rhsMax =  -1.46404842332389E+02  1.01665433694880E+00
(PID.TID 0000.0001)  ploadbar=  1.01023745179385E+05
 cg2d: Sum(rhs),rhsMax =  -1.46530872681925E+02  1.01554401615936E+00
(PID.TID 0000.0001)  ploadbar=  1.01025378897827E+05
 cg2d: Sum(rhs),rhsMax =  -1.46635741334107E+02  1.01463439557452E+00
(PID.TID 0000.0001)  ploadbar=  1.01026845507231E+05
 cg2d: Sum(rhs),rhsMax =  -1.46742847156993E+02  1.01375454679324E+00
(PID.TID 0000.0001)  ploadbar=  1.01028312116635E+05
 cg2d: Sum(rhs),rhsMax =  -1.46872616782848E+02  1.01275794577322E+00
(PID.TID 0000.0001)  ploadbar=  1.01029778726038E+05
 cg2d: Sum(rhs),rhsMax =  -1.47045151069257E+02  1.01150266657399E+00
(PID.TID 0000.0001)  ploadbar=  1.01031245335442E+05
 cg2d: Sum(rhs),rhsMax =  -1.47227108536517E+02  1.01021999782693E+00
(PID.TID 0000.0001)  ploadbar=  1.01032711944846E+05
 cg2d: Sum(rhs),rhsMax =  -1.47415612552716E+02  1.00893294682516E+00
(PID.TID 0000.0001)  ploadbar=  1.01034178554249E+05
 cg2d: Sum(rhs),rhsMax =  -1.47697639975841E+02  1.00699904796102E+00
(PID.TID 0000.0001)  ploadbar=  1.01035732213261E+05
 cg2d: Sum(rhs),rhsMax =  -1.48055475973514E+02  1.00453983706351E+00
(PID.TID 0000.0001)  ploadbar=  1.01037285872273E+05
 cg2d: Sum(rhs),rhsMax =  -1.48468038232992E+02  1.00170275260263E+00
(PID.TID 0000.0001)  ploadbar=  1.01038839531285E+05
 cg2d: Sum(rhs),rhsMax =  -1.48944106894590E+02  9.98433865299121E-01
(PID.TID 0000.0001)  ploadbar=  1.01040393190296E+05
 cg2d: Sum(rhs),rhsMax =  -1.49497557819991E+02  9.94649890074208E-01
(PID.TID 0000.0001)  ploadbar=  1.01041946849308E+05
 cg2d: Sum(rhs),rhsMax =  -1.50132860916496E+02  9.90330918710245E-01
(PID.TID 0000.0001)  ploadbar=  1.01043500508320E+05
 cg2d: Sum(rhs),rhsMax =  -1.50831904006986E+02  9.85647825091134E-01
(PID.TID 0000.0001)  ploadbar=  1.01045719218831E+05
 cg2d: Sum(rhs),rhsMax =  -1.51560484605726E+02  9.80826586465352E-01
(PID.TID 0000.0001)  ploadbar=  1.01047937929342E+05
 cg2d: Sum(rhs),rhsMax =  -1.52314612778822E+02  9.75896332435163E-01
(PID.TID 0000.0001)  ploadbar=  1.01050156639854E+05
 cg2d: Sum(rhs),rhsMax =  -1.53065375175007E+02  9.71041137688800E-01
(PID.TID 0000.0001)  ploadbar=  1.01052375350365E+05
 cg2d: Sum(rhs),rhsMax =  -1.53789534256718E+02  9.66402114272342E-01
(PID.TID 0000.0001)  ploadbar=  1.01054594060876E+05
 cg2d: Sum(rhs),rhsMax =  -1.54475562167854E+02  9.62039935166175E-01
(PID.TID 0000.0001)  ploadbar=  1.01056812771388E+05
 cg2d: Sum(rhs),rhsMax =  -1.55104956145002E+02  9.58054568951006E-01
(PID.TID 0000.0001)  ploadbar=  1.01057757440319E+05
 cg2d: Sum(rhs),rhsMax =  -1.55693075032123E+02  9.54340589910181E-01
(PID.TID 0000.0001)  ploadbar=  1.01058702109251E+05
 cg2d: Sum(rhs),rhsMax =  -1.56252936183148E+02  9.50809685130879E-01
(PID.TID 0000.0001)  ploadbar=  1.01059646778183E+05
 cg2d: Sum(rhs),rhsMax =  -1.56785289681581E+02  9.47450103321853E-01
(PID.TID 0000.0001)  ploadbar=  1.01060591447114E+05
 cg2d: Sum(rhs),rhsMax =  -1.57294906092601E+02  9.44225618473490E-01
(PID.TID 0000.0001)  ploadbar=  1.01061536116046E+05
 cg2d: Sum(rhs),rhsMax =  -1.57786027220371E+02  9.41103468257924E-01
(PID.TID 0000.0001)  ploadbar=  1.01062480784978E+05
 cg2d: Sum(rhs),rhsMax =  -1.58246501877186E+02  9.38209109478568E-01
(PID.TID 0000.0001)  ploadbar=  1.01062928345197E+05
 cg2d: Sum(rhs),rhsMax =  -1.58699957301158E+02  9.35392756951550E-01
(PID.TID 0000.0001)  ploadbar=  1.01063375905416E+05
 cg2d: Sum(rhs),rhsMax =  -1.59151332965218E+02  9.32619583978780E-01
(PID.TID 0000.0001)  ploadbar=  1.01063823465635E+05
 cg2d: Sum(rhs),rhsMax =  -1.59600642523768E+02  9.29886754522115E-01
(PID.TID 0000.0001)  ploadbar=  1.01064271025854E+05
 cg2d: Sum(rhs),rhsMax =  -1.60055404912784E+02  9.27149790698909E-01
(PID.TID 0000.0001)  ploadbar=  1.01064718586073E+05
 cg2d: Sum(rhs),rhsMax =  -1.60521770170462E+02  9.24372811797305E-01
(PID.TID 0000.0001)  ploadbar=  1.01065166146292E+05
 cg2d: Sum(rhs),rhsMax =  -1.61009827389322E+02  9.21480814912737E-01
(PID.TID 0000.0001)  ploadbar=  1.01064732826465E+05
 cg2d: Sum(rhs),rhsMax =  -1.61511890442834E+02  9.18513571622236E-01
(PID.TID 0000.0001)  ploadbar=  1.01064299506639E+05
 cg2d: Sum(rhs),rhsMax =  -1.61102180484130E+02  9.20732875311626E-01
(PID.TID 0000.0001)  ploadbar=  1.01063866186812E+05
 cg2d: Sum(rhs),rhsMax =  -1.59850019639174E+02  9.27813367430314E-01
(PID.TID 0000.0001)  ploadbar=  1.01063432866985E+05
 cg2d: Sum(rhs),rhsMax =  -1.58633120175868E+02  9.34781957152156E-01
(PID.TID 0000.0001)  ploadbar=  1.01062999547159E+05
 cg2d: Sum(rhs),rhsMax =  -1.57455160325012E+02  9.41608961898193E-01
(PID.TID 0000.0001)  ploadbar=  1.01062566227332E+05
 cg2d: Sum(rhs),rhsMax =  -1.56289178634612E+02  9.48486569672415E-01
(PID.TID 0000.0001)  ploadbar=  1.01062733130369E+05
 cg2d: Sum(rhs),rhsMax =  -1.55110318057082E+02  9.55561343352222E-01
(PID.TID 0000.0001)  ploadbar=  1.01062900033406E+05
 cg2d: Sum(rhs),rhsMax =  -1.53921928915967E+02  9.62814044927787E-01
(PID.TID 0000.0001)  ploadbar=  1.01063066936443E+05
 cg2d: Sum(rhs),rhsMax =  -1.52724828038823E+02  9.70240695762676E-01
(PID.TID 0000.0001)  ploadbar=  1.01063233839480E+05
 cg2d: Sum(rhs),rhsMax =  -1.51519378850455E+02  9.77836725566784E-01
(PID.TID 0000.0001)  ploadbar=  1.01063400742517E+05
 cg2d: Sum(rhs),rhsMax =  -1.50318776458641E+02  9.85516322409810E-01
(PID.TID 0000.0001)  ploadbar=  1.01063567645554E+05
 cg2d: Sum(rhs),rhsMax =  -1.49052415235999E+02  9.93754095397826E-01
(PID.TID 0000.0001)  ploadbar=  1.01063710337390E+05
 cg2d: Sum(rhs),rhsMax =  -1.47782676757012E+02  1.00214849294403E+00
(PID.TID 0000.0001)  ploadbar=  1.01063853029226E+05
 cg2d: Sum(rhs),rhsMax =  -1.46441861146247E+02  1.01116610134215E+00
(PID.TID 0000.0001)  ploadbar=  1.01063995721062E+05
 cg2d: Sum(rhs),rhsMax =  -1.43874316634357E+02  1.02903130563986E+00
(PID.TID 0000.0001)  ploadbar=  1.01064138412899E+05
 cg2d: Sum(rhs),rhsMax =  -1.40857800878521E+02  1.05086200616944E+00
(PID.TID 0000.0001)  ploadbar=  1.01064281104735E+05
 cg2d: Sum(rhs),rhsMax =  -1.37547061464765E+02  1.07591990385531E+00
(PID.TID 0000.0001)  ploadbar=  1.01064423796571E+05
 cg2d: Sum(rhs),rhsMax =  -1.34134882698142E+02  1.10308786260448E+00
(PID.TID 0000.0001)  ploadbar=  1.01064199611944E+05
 cg2d: Sum(rhs),rhsMax =  -1.31268051846932E+02  1.12700347259792E+00
(PID.TID 0000.0001)  ploadbar=  1.01063975427317E+05
 cg2d: Sum(rhs),rhsMax =  -1.28937041470170E+02  1.14722699028859E+00
(PID.TID 0000.0001)  ploadbar=  1.01063751242690E+05
 cg2d: Sum(rhs),rhsMax =  -1.26974790260289E+02  1.16482838278196E+00
(PID.TID 0000.0001)  ploadbar=  1.01063527058062E+05
 cg2d: Sum(rhs),rhsMax =  -1.25314507531436E+02  1.18015552803957E+00
(PID.TID 0000.0001)  ploadbar=  1.01063302873435E+05
 cg2d: Sum(rhs),rhsMax =  -1.23879671168244E+02  1.19373927438257E+00
(PID.TID 0000.0001)  ploadbar=  1.01063078688808E+05
 cg2d: Sum(rhs),rhsMax =  -1.22665521421435E+02  1.20546135681121E+00
(PID.TID 0000.0001)  ploadbar=  1.01063228955579E+05
 cg2d: Sum(rhs),rhsMax =  -1.21587751041681E+02  1.21604363079284E+00
(PID.TID 0000.0001)  ploadbar=  1.01063379222349E+05
 cg2d: Sum(rhs),rhsMax =  -1.20543380514917E+02  1.22646518088007E+00
(PID.TID 0000.0001)  ploadbar=  1.01063529489120E+05
 cg2d: Sum(rhs),rhsMax =  -1.19370367122810E+02  1.23839067900673E+00
(PID.TID 0000.0001)  ploadbar=  1.01063679755891E+05
 cg2d: Sum(rhs),rhsMax =  -1.18510331808721E+02  1.24723790533956E+00
(PID.TID 0000.0001)  ploadbar=  1.01063830022661E+05
 cg2d: Sum(rhs),rhsMax =  -1.17931653690825E+02  1.25320123167608E+00
(PID.TID 0000.0001)  ploadbar=  1.01063980289432E+05
 cg2d: Sum(rhs),rhsMax =  -1.16691032866702E+02  1.26638635451336E+00
(PID.TID 0000.0001)  ploadbar=  1.01065105563120E+05
 cg2d: Sum(rhs),rhsMax =  -1.15300659101050E+02  1.28152855530784E+00
(PID.TID 0000.0001)  ploadbar=  1.01066230836809E+05
 cg2d: Sum(rhs),rhsMax =  -1.13888029960265E+02  1.29729915999635E+00
(PID.TID 0000.0001)  ploadbar=  1.01067356110497E+05
 cg2d: Sum(rhs),rhsMax =  -1.12515800095655E+02  1.31299024251213E+00
(PID.TID 0000.0001)  ploadbar=  1.01068481384186E+05
 cg2d: Sum(rhs),rhsMax =  -1.11228429861236E+02  1.32804438542083E+00
(PID.TID 0000.0001)  ploadbar=  1.01069606657874E+05
 cg2d: Sum(rhs),rhsMax =  -1.10052545494416E+02  1.34207621067512E+00
(PID.TID 0000.0001)  ploadbar=  1.01070731931563E+05
 cg2d: Sum(rhs),rhsMax =  -1.08982249421775E+02  1.35507523342900E+00
(PID.TID 0000.0001)  ploadbar=  1.01071940415283E+05
 cg2d: Sum(rhs),rhsMax =  -1.08031201751630E+02  1.36679393337445E+00
(PID.TID 0000.0001)  ploadbar=  1.01073148899003E+05
 cg2d: Sum(rhs),rhsMax =  -1.07184496075887E+02  1.37734576825739E+00
(PID.TID 0000.0001)  ploadbar=  1.01074357382723E+05
 cg2d: Sum(rhs),rhsMax =  -1.06420654637173E+02  1.38694561667655E+00
(PID.TID 0000.0001)  ploadbar=  1.01075565866443E+05
 cg2d: Sum(rhs),rhsMax =  -1.05740864943933E+02  1.39552995029161E+00
(PID.TID 0000.0001)  ploadbar=  1.01076774350163E+05
 cg2d: Sum(rhs),rhsMax =  -1.05145693863037E+02  1.40304775232260E+00
(PID.TID 0000.0001)  ploadbar=  1.01077982833884E+05
 cg2d: Sum(rhs),rhsMax =  -1.04756399625299E+02  1.40793137402039E+00
(PID.TID 0000.0001)  ploadbar=  1.01079646893925E+05
 cg2d: Sum(rhs),rhsMax =  -1.04747275311023E+02  1.40776708460469E+00
(PID.TID 0000.0001)  ploadbar=  1.01081310953966E+05
 cg2d: Sum(rhs),rhsMax =  -1.05100169330366E+02  1.40278946540423E+00
(PID.TID 0000.0001)  ploadbar=  1.01082975014007E+05
 cg2d: Sum(rhs),rhsMax =  -1.05813865162382E+02  1.39311102784370E+00
(PID.TID 0000.0001)  ploadbar=  1.01084639074048E+05
 cg2d: Sum(rhs),rhsMax =  -1.06474165872691E+02  1.38428625697677E+00
(PID.TID 0000.0001)  ploadbar=  1.01086303134089E+05
 cg2d: Sum(rhs),rhsMax =  -1.07276375492088E+02  1.37377703288725E+00
(PID.TID 0000.0001)  ploadbar=  1.01087967194131E+05
 cg2d: Sum(rhs),rhsMax =  -1.08118006774954E+02  1.36293901648736E+00
(PID.TID 0000.0001)  ploadbar=  1.01088369761869E+05
 cg2d: Sum(rhs),rhsMax =  -1.08971704405043E+02  1.35212381918408E+00
(PID.TID 0000.0001)  ploadbar=  1.01088772329607E+05
 cg2d: Sum(rhs),rhsMax =  -1.09792202841233E+02  1.34188515516254E+00
(PID.TID 0000.0001)  ploadbar=  1.01089174897345E+05
 cg2d: Sum(rhs),rhsMax =  -1.10547805694450E+02  1.33258332605598E+00
(PID.TID 0000.0001)  ploadbar=  1.01089577465083E+05
 cg2d: Sum(rhs),rhsMax =  -1.11293537151336E+02  1.32352558142176E+00
(PID.TID 0000.0001)  ploadbar=  1.01089980032821E+05
 cg2d: Sum(rhs),rhsMax =  -1.12029545409386E+02  1.31469984290407E+00
(PID.TID 0000.0001)  ploadbar=  1.01090382600559E+05
 cg2d: Sum(rhs),rhsMax =  -1.12799234715969E+02  1.30561234316106E+00
(PID.TID 0000.0001)  ploadbar=  1.01092457940766E+05
 cg2d: Sum(rhs),rhsMax =  -1.13562567832219E+02  1.29672767220219E+00
(PID.TID 0000.0001)  ploadbar=  1.01094533280974E+05
 cg2d: Sum(rhs),rhsMax =  -1.14290841763392E+02  1.28836009783495E+00
(PID.TID 0000.0001)  ploadbar=  1.01096608621181E+05
 cg2d: Sum(rhs),rhsMax =  -1.14975919479165E+02  1.28058204578558E+00
(PID.TID 0000.0001)  ploadbar=  1.01098683961388E+05
 cg2d: Sum(rhs),rhsMax =  -1.14412821372016E+02  1.28678282196582E+00
(PID.TID 0000.0001)  ploadbar=  1.01100759301596E+05
 cg2d: Sum(rhs),rhsMax =  -1.11545683753374E+02  1.31974806561481E+00
(PID.TID 0000.0001)  ploadbar=  1.01102834641803E+05
 cg2d: Sum(rhs),rhsMax =  -1.08903456081539E+02  1.35163505304261E+00
(PID.TID 0000.0001)  ploadbar=  1.01102890618569E+05
 cg2d: Sum(rhs),rhsMax =  -1.06506515416821E+02  1.38189128853099E+00
(PID.TID 0000.0001)  ploadbar=  1.01102946595334E+05
 cg2d: Sum(rhs),rhsMax =  -1.04433632406821E+02  1.40912440581071E+00
(PID.TID 0000.0001)  ploadbar=  1.01103002572099E+05
 cg2d: Sum(rhs),rhsMax =  -1.02685950807296E+02  1.43287432713285E+00
(PID.TID 0000.0001)  ploadbar=  1.01103058548864E+05
 cg2d: Sum(rhs),rhsMax =  -1.01248409513304E+02  1.45294642480300E+00
(PID.TID 0000.0001)  ploadbar=  1.01103114525630E+05
 cg2d: Sum(rhs),rhsMax =  -1.00073286967413E+02  1.46969442276848E+00
(PID.TID 0000.0001)  ploadbar=  1.01103170502395E+05
 cg2d: Sum(rhs),rhsMax =  -9.92353809775578E+01  1.48183650971129E+00
(PID.TID 0000.0001)  ploadbar=  1.01103544903756E+05
 cg2d: Sum(rhs),rhsMax =  -9.86227142814629E+01  1.49081150701718E+00
(PID.TID 0000.0001)  ploadbar=  1.01103919305116E+05
 cg2d: Sum(rhs),rhsMax =  -9.82695098414916E+01  1.49597198795511E+00
(PID.TID 0000.0001)  ploadbar=  1.01104293706477E+05
 cg2d: Sum(rhs),rhsMax =  -9.81118849092703E+01  1.49820876692633E+00
(PID.TID 0000.0001)  ploadbar=  1.01104668107838E+05
 cg2d: Sum(rhs),rhsMax =  -9.81061779580645E+01  1.49815726142368E+00
(PID.TID 0000.0001)  ploadbar=  1.01105042509198E+05
 cg2d: Sum(rhs),rhsMax =  -9.81901677067536E+01  1.49676301592241E+00
(PID.TID 0000.0001)  ploadbar=  1.01105416910559E+05
 cg2d: Sum(rhs),rhsMax =  -9.84691736884017E+01  1.49241203715100E+00
(PID.TID 0000.0001)  ploadbar=  1.01105568663324E+05
 cg2d: Sum(rhs),rhsMax =  -9.89987792871301E+01  1.48431397039776E+00
(PID.TID 0000.0001)  ploadbar=  1.01105720416089E+05
 cg2d: Sum(rhs),rhsMax =  -9.97448801732954E+01  1.47308983137799E+00
(PID.TID 0000.0001)  ploadbar=  1.01105872168854E+05
 cg2d: Sum(rhs),rhsMax =  -1.00704387537803E+02  1.45892349529322E+00
(PID.TID 0000.0001)  ploadbar=  1.01106023921619E+05
 cg2d: Sum(rhs),rhsMax =  -1.01883080539439E+02  1.44190277695694E+00
(PID.TID 0000.0001)  ploadbar=  1.01106175674384E+05
 cg2d: Sum(rhs),rhsMax =  -1.03263228865090E+02  1.42247652752224E+00
(PID.TID 0000.0001)  ploadbar=  1.01106327427149E+05
 cg2d: Sum(rhs),rhsMax =  -1.04833455056732E+02  1.40102422349137E+00
(PID.TID 0000.0001)  ploadbar=  1.01104888624172E+05
 cg2d: Sum(rhs),rhsMax =  -1.06593788487456E+02  1.37774586616368E+00
(PID.TID 0000.0001)  ploadbar=  1.01103449821195E+05
 cg2d: Sum(rhs),rhsMax =  -1.08539930923828E+02  1.35290455923967E+00
(PID.TID 0000.0001)  ploadbar=  1.01102011018218E+05
 cg2d: Sum(rhs),rhsMax =  -1.10673094380992E+02  1.32668966433417E+00
(PID.TID 0000.0001)  ploadbar=  1.01100572215241E+05
 cg2d: Sum(rhs),rhsMax =  -1.12994120416106E+02  1.29929287145992E+00
(PID.TID 0000.0001)  ploadbar=  1.01099133412264E+05
 cg2d: Sum(rhs),rhsMax =  -1.15499232063606E+02  1.27095397311415E+00
(PID.TID 0000.0001)  ploadbar=  1.01097694609287E+05
 cg2d: Sum(rhs),rhsMax =  -1.18092484141658E+02  1.24288698353666E+00
(PID.TID 0000.0001)  ploadbar=  1.01097200519244E+05
 cg2d: Sum(rhs),rhsMax =  -1.20218992910204E+02  1.22073994665010E+00
(PID.TID 0000.0001)  ploadbar=  1.01096706429201E+05
 cg2d: Sum(rhs),rhsMax =  -1.22150062257714E+02  1.20127095188454E+00
(PID.TID 0000.0001)  ploadbar=  1.01096212339158E+05
 cg2d: Sum(rhs),rhsMax =  -1.22883879844907E+02  1.19391465206198E+00
(PID.TID 0000.0001)  ploadbar=  1.01095718249116E+05
 cg2d: Sum(rhs),rhsMax =  -1.21857707497142E+02  1.20376807307297E+00
(PID.TID 0000.0001)  ploadbar=  1.01095224159073E+05
 cg2d: Sum(rhs),rhsMax =  -1.20849452349927E+02  1.21359000921741E+00
(PID.TID 0000.0001)  ploadbar=  1.01094730069030E+05
 cg2d: Sum(rhs),rhsMax =  -1.19979301237536E+02  1.22221054194763E+00
(PID.TID 0000.0001)  ploadbar=  1.01094464128534E+05
 cg2d: Sum(rhs),rhsMax =  -1.19165588012441E+02  1.23040551064189E+00
(PID.TID 0000.0001)  ploadbar=  1.01094198188038E+05
 cg2d: Sum(rhs),rhsMax =  -1.18464177858588E+02  1.23756488620226E+00
(PID.TID 0000.0001)  ploadbar=  1.01093932247542E+05
 cg2d: Sum(rhs),rhsMax =  -1.17915930206878E+02  1.24321484216901E+00
(PID.TID 0000.0001)  ploadbar=  1.01093666307047E+05
 cg2d: Sum(rhs),rhsMax =  -1.17535358719738E+02  1.24715691212892E+00
(PID.TID 0000.0001)  ploadbar=  1.01093400366551E+05
 cg2d: Sum(rhs),rhsMax =  -1.17581474750102E+02  1.24660510245441E+00
(PID.TID 0000.0001)  ploadbar=  1.01093134426055E+05
 cg2d: Sum(rhs),rhsMax =  -1.17879546081943E+02  1.24338205951113E+00
(PID.TID 0000.0001)  ploadbar=  1.01092087910628E+05
 cg2d: Sum(rhs),rhsMax =  -1.18365415818336E+02  1.23819389652572E+00
(PID.TID 0000.0001)  ploadbar=  1.01091041395200E+05
 cg2d: Sum(rhs),rhsMax =  -1.19150161469487E+02  1.22994021228056E+00
(PID.TID 0000.0001)  ploadbar=  1.01089994879773E+05
 cg2d: Sum(rhs),rhsMax =  -1.20217591948109E+02  1.21890567490625E+00
(PID.TID 0000.0001)  ploadbar=  1.01088948364346E+05
 cg2d: Sum(rhs),rhsMax =  -1.21534830336055E+02  1.20556571360275E+00
(PID.TID 0000.0001)  ploadbar=  1.01087901848918E+05
 cg2d: Sum(rhs),rhsMax =  -1.23114426112826E+02  1.18995122974412E+00
(PID.TID 0000.0001)  ploadbar=  1.01086855333491E+05
 cg2d: Sum(rhs),rhsMax =  -1.25305196742306E+02  1.16902784768983E+00
(PID.TID 0000.0001)  ploadbar=  1.01086152259401E+05
 cg2d: Sum(rhs),rhsMax =  -1.26714076204714E+02  1.15593152818115E+00
(PID.TID 0000.0001)  ploadbar=  1.01085449185310E+05
 cg2d: Sum(rhs),rhsMax =  -1.27231296700013E+02  1.15114727562868E+00
(PID.TID 0000.0001)  ploadbar=  1.01084746111220E+05
 cg2d: Sum(rhs),rhsMax =  -1.27729168423686E+02  1.14658605986530E+00
(PID.TID 0000.0001)  ploadbar=  1.01084043037130E+05
 cg2d: Sum(rhs),rhsMax =  -1.28195475065930E+02  1.14235001418430E+00
(PID.TID 0000.0001)  ploadbar=  1.01083339963040E+05
 cg2d: Sum(rhs),rhsMax =  -1.28628109090525E+02  1.13844708113568E+00
(PID.TID 0000.0001)  ploadbar=  1.01082636888949E+05
 cg2d: Sum(rhs),rhsMax =  -1.29070088267483E+02  1.13448397320005E+00
(PID.TID 0000.0001)  ploadbar=  1.01082141762511E+05
 cg2d: Sum(rhs),rhsMax =  -1.29487632578276E+02  1.13075275288060E+00
(PID.TID 0000.0001)  ploadbar=  1.01081646636072E+05
 cg2d: Sum(rhs),rhsMax =  -1.29860105396290E+02  1.12742340642220E+00
(PID.TID 0000.0001)  ploadbar=  1.01081151509633E+05
 cg2d: Sum(rhs),rhsMax =  -1.30206909913462E+02  1.12431968712010E+00
(PID.TID 0000.0001)  ploadbar=  1.01080656383194E+05
 cg2d: Sum(rhs),rhsMax =  -1.30520465727896E+02  1.12149835749433E+00
(PID.TID 0000.0001)  ploadbar=  1.01080161256755E+05
 cg2d: Sum(rhs),rhsMax =  -1.30796673732568E+02  1.11898666390281E+00
(PID.TID 0000.0001)  ploadbar=  1.01079666130316E+05
 cg2d: Sum(rhs),rhsMax =  -1.31086031286629E+02  1.11640992380875E+00
(PID.TID 0000.0001)  ploadbar=  1.01080247046265E+05
 cg2d: Sum(rhs),rhsMax =  -1.31358996791612E+02  1.11401057941729E+00
(PID.TID 0000.0001)  ploadbar=  1.01080827962213E+05
 cg2d: Sum(rhs),rhsMax =  -1.31589402299170E+02  1.11200227353117E+00
(PID.TID 0000.0001)  ploadbar=  1.01081408878162E+05
 cg2d: Sum(rhs),rhsMax =  -1.31801065169078E+02  1.11017717250410E+00
(PID.TID 0000.0001)  ploadbar=  1.01081989794110E+05
 cg2d: Sum(rhs),rhsMax =  -1.32002761146470E+02  1.10845884886383E+00
(PID.TID 0000.0001)  ploadbar=  1.01082570710059E+05
 cg2d: Sum(rhs),rhsMax =  -1.32199136442269E+02  1.10680774240680E+00
(PID.TID 0000.0001)  ploadbar=  1.01083151626007E+05
 cg2d: Sum(rhs),rhsMax =  -1.32342380131991E+02  1.10560957432580E+00
(PID.TID 0000.0001)  ploadbar=  1.01083746491382E+05
 cg2d: Sum(rhs),rhsMax =  -1.32535136581625E+02  1.10400147111399E+00
(PID.TID 0000.0001)  ploadbar=  1.01084341356756E+05
 cg2d: Sum(rhs),rhsMax =  -1.32776910927849E+02  1.10198892360723E+00
(PID.TID 0000.0001)  ploadbar=  1.01084936222130E+05
 cg2d: Sum(rhs),rhsMax =  -1.27081725737723E+02  1.15136790321467E+00
(PID.TID 0000.0001)  ploadbar=  1.01085531087504E+05
 cg2d: Sum(rhs),rhsMax =  -1.18623097652018E+02  1.23344956371432E+00
(PID.TID 0000.0001)  ploadbar=  1.01086125952878E+05
 cg2d: Sum(rhs),rhsMax =  -1.08805487935001E+02  1.34470570616213E+00
(PID.TID 0000.0001)  ploadbar=  1.01086720818252E+05
 cg2d: Sum(rhs),rhsMax =  -1.00896562918855E+02  1.45007582721619E+00
(PID.TID 0000.0001)  ploadbar=  1.01086936905711E+05
 cg2d: Sum(rhs),rhsMax =  -9.42496643557606E+01  1.55230258036545E+00
(PID.TID 0000.0001)  ploadbar=  1.01087152993169E+05
 cg2d: Sum(rhs),rhsMax =  -8.87090188196003E+01  1.64921563472549E+00
(PID.TID 0000.0001)  ploadbar=  1.01087369080627E+05
 cg2d: Sum(rhs),rhsMax =  -8.43391523914516E+01  1.73462308835796E+00
(PID.TID 0000.0001)  ploadbar=  1.01087585168086E+05
 cg2d: Sum(rhs),rhsMax =  -8.10596860621303E+01  1.80475723495311E+00
(PID.TID 0000.0001)  ploadbar=  1.01087801255544E+05
 cg2d: Sum(rhs),rhsMax =  -7.85610490894882E+01  1.86211054002724E+00
(PID.TID 0000.0001)  ploadbar=  1.01088017343002E+05
 cg2d: Sum(rhs),rhsMax =  -7.67327184864196E+01  1.90641866924216E+00
(PID.TID 0000.0001)  ploadbar=  1.01089048266768E+05
 cg2d: Sum(rhs),rhsMax =  -7.53300097690556E+01  1.94183565642432E+00
(PID.TID 0000.0001)  ploadbar=  1.01090079190534E+05
 cg2d: Sum(rhs),rhsMax =  -7.42146220198991E+01  1.97091172248343E+00
(PID.TID 0000.0001)  ploadbar=  1.01091110114300E+05
 cg2d: Sum(rhs),rhsMax =  -7.33647866314821E+01  1.99360068198366E+00
(PID.TID 0000.0001)  ploadbar=  1.01092141038066E+05
 cg2d: Sum(rhs),rhsMax =  -7.27894554747542E+01  2.00917633064092E+00
(PID.TID 0000.0001)  ploadbar=  1.01093171961832E+05
 cg2d: Sum(rhs),rhsMax =  -7.25427361338357E+01  2.01578126503218E+00
(PID.TID 0000.0001)  ploadbar=  1.01094202885598E+05
 cg2d: Sum(rhs),rhsMax =  -7.24647619807318E+01  2.01778081196214E+00
(PID.TID 0000.0001)  ploadbar=  1.01095507053321E+05
 cg2d: Sum(rhs),rhsMax =  -7.25756864518426E+01  2.01457281084633E+00
(PID.TID 0000.0001)  ploadbar=  1.01096811221043E+05
 cg2d: Sum(rhs),rhsMax =  -7.28859842589631E+01  2.00590859792543E+00
(PID.TID 0000.0001)  ploadbar=  1.01098115388765E+05
 cg2d: Sum(rhs),rhsMax =  -7.34736274306117E+01  1.98981061427310E+00
(PID.TID 0000.0001)  ploadbar=  1.01099419556487E+05
 cg2d: Sum(rhs),rhsMax =  -7.43670141032464E+01  1.96588219297142E+00
(PID.TID 0000.0001)  ploadbar=  1.01100723724210E+05
 cg2d: Sum(rhs),rhsMax =  -7.52454248335828E+01  1.94293897238210E+00
(PID.TID 0000.0001)  ploadbar=  1.01102027891932E+05
 cg2d: Sum(rhs),rhsMax =  -7.60882938465142E+01  1.92143887069583E+00
(PID.TID 0000.0001)  ploadbar=  1.01102211716343E+05
 cg2d: Sum(rhs),rhsMax =  -7.69073923118772E+01  1.90100618133264E+00
(PID.TID 0000.0001)  ploadbar=  1.01102395540753E+05
 cg2d: Sum(rhs),rhsMax =  -7.76652492833698E+01  1.88249218205474E+00
(PID.TID 0000.0001)  ploadbar=  1.01102579365164E+05
 cg2d: Sum(rhs),rhsMax =  -7.82123288928252E+01  1.86936112553108E+00
(PID.TID 0000.0001)  ploadbar=  1.01102763189575E+05
 cg2d: Sum(rhs),rhsMax =  -7.84223170924563E+01  1.86438047080019E+00
(PID.TID 0000.0001)  ploadbar=  1.01102947013985E+05
 cg2d: Sum(rhs),rhsMax =  -7.83496670617487E+01  1.86610407757831E+00
(PID.TID 0000.0001)  ploadbar=  1.01103130838396E+05
 cg2d: Sum(rhs),rhsMax =  -7.79044465821947E+01  1.87678067018571E+00
(PID.TID 0000.0001)  ploadbar=  1.01103085610394E+05
 cg2d: Sum(rhs),rhsMax =  -7.72241004269451E+01  1.89333744990273E+00
(PID.TID 0000.0001)  ploadbar=  1.01103040382391E+05
 cg2d: Sum(rhs),rhsMax =  -7.63719852434681E+01  1.91449229666977E+00
(PID.TID 0000.0001)  ploadbar=  1.01102995154389E+05
 cg2d: Sum(rhs),rhsMax =  -7.53686374341733E+01  1.94001218572781E+00
(PID.TID 0000.0001)  ploadbar=  1.01102949926387E+05
 cg2d: Sum(rhs),rhsMax =  -7.41652184452838E+01  1.97152264138248E+00
(PID.TID 0000.0001)  ploadbar=  1.01102904698385E+05
 cg2d: Sum(rhs),rhsMax =  -7.27679712670044E+01  2.00939972870118E+00
(PID.TID 0000.0001)  ploadbar=  1.01102859470383E+05
 cg2d: Sum(rhs),rhsMax =  -7.10376826667807E+01  2.05838815616211E+00
(PID.TID 0000.0001)  ploadbar=  1.01103357440469E+05
 cg2d: Sum(rhs),rhsMax =  -6.89630110921721E+01  2.12037502825999E+00
(PID.TID 0000.0001)  ploadbar=  1.01103855410554E+05
 cg2d: Sum(rhs),rhsMax =  -6.65397495964338E+01  2.19766821210528E+00
(PID.TID 0000.0001)  ploadbar=  1.01104353380640E+05
 cg2d: Sum(rhs),rhsMax =  -6.38631254319341E+01  2.28985348834152E+00
(PID.TID 0000.0001)  ploadbar=  1.01104851350725E+05
 cg2d: Sum(rhs),rhsMax =  -6.13784866832596E+01  2.38262244594348E+00
(PID.TID 0000.0001)  ploadbar=  1.01105349320811E+05
 cg2d: Sum(rhs),rhsMax =  -5.92649991544406E+01  2.46765483015508E+00
(PID.TID 0000.0001)  ploadbar=  1.01105847290896E+05
 cg2d: Sum(rhs),rhsMax =  -5.73672546758043E+01  2.54941436355412E+00
(PID.TID 0000.0001)  ploadbar=  1.01105635493592E+05
 cg2d: Sum(rhs),rhsMax =  -5.55152864594475E+01  2.63463667129716E+00
(PID.TID 0000.0001)  ploadbar=  1.01105423696287E+05
 cg2d: Sum(rhs),rhsMax =  -5.37011883905962E+01  2.72386090578626E+00
(PID.TID 0000.0001)  ploadbar=  1.01105211898983E+05
 cg2d: Sum(rhs),rhsMax =  -5.20995193808712E+01  2.80787094551830E+00
(PID.TID 0000.0001)  ploadbar=  1.01105000101678E+05
 cg2d: Sum(rhs),rhsMax =  -5.10684327299337E+01  2.86489382062637E+00
(PID.TID 0000.0001)  ploadbar=  1.01104788304374E+05
 cg2d: Sum(rhs),rhsMax =  -5.00885826644628E+01  2.92133563273395E+00
(PID.TID 0000.0001)  ploadbar=  1.01104576507069E+05
 cg2d: Sum(rhs),rhsMax =  -4.91479476740291E+01  2.97761610488300E+00
(PID.TID 0000.0001)  ploadbar=  1.01104022299264E+05
 cg2d: Sum(rhs),rhsMax =  -4.82457468062062E+01  3.03360777282693E+00
(PID.TID 0000.0001)  ploadbar=  1.01103468091459E+05
 cg2d: Sum(rhs),rhsMax =  -4.73884770204149E+01  3.08871701919287E+00
(PID.TID 0000.0001)  ploadbar=  1.01102913883654E+05
 cg2d: Sum(rhs),rhsMax =  -4.65775242870904E+01  3.14263503329542E+00
(PID.TID 0000.0001)  ploadbar=  1.01102359675849E+05
 cg2d: Sum(rhs),rhsMax =  -4.58031205625648E+01  3.19579654327210E+00
(PID.TID 0000.0001)  ploadbar=  1.01101805468043E+05
 cg2d: Sum(rhs),rhsMax =  -4.50509839561471E+01  3.24905438400996E+00
(PID.TID 0000.0001)  ploadbar=  1.01101251260238E+05
 cg2d: Sum(rhs),rhsMax =  -4.43437677513901E+01  3.30080102595608E+00
(PID.TID 0000.0001)  ploadbar=  1.01101508482923E+05
 cg2d: Sum(rhs),rhsMax =  -4.36720055604358E+01  3.35151190990410E+00
(PID.TID 0000.0001)  ploadbar=  1.01101765705607E+05
 cg2d: Sum(rhs),rhsMax =  -4.30435667414161E+01  3.40038146654717E+00
(PID.TID 0000.0001)  ploadbar=  1.01102022928292E+05
 cg2d: Sum(rhs),rhsMax =  -4.24664345932586E+01  3.44652966937797E+00
(PID.TID 0000.0001)  ploadbar=  1.01102280150977E+05
 cg2d: Sum(rhs),rhsMax =  -4.19573811471611E+01  3.48827088380545E+00
(PID.TID 0000.0001)  ploadbar=  1.01102537373661E+05
 cg2d: Sum(rhs),rhsMax =  -4.15151558611622E+01  3.52533249008932E+00
(PID.TID 0000.0001)  ploadbar=  1.01102794596346E+05
 cg2d: Sum(rhs),rhsMax =  -4.11336734547699E+01  3.55790906958280E+00
(PID.TID 0000.0001)  ploadbar=  1.01101603175734E+05
 cg2d: Sum(rhs),rhsMax =  -4.08090120120142E+01  3.58606467737651E+00
(PID.TID 0000.0001)  ploadbar=  1.01100411755121E+05
 cg2d: Sum(rhs),rhsMax =  -4.05373205986639E+01  3.60990682235647E+00
(PID.TID 0000.0001)  ploadbar=  1.01099220334509E+05
 cg2d: Sum(rhs),rhsMax =  -4.03145768876212E+01  3.62960323738917E+00
(PID.TID 0000.0001)  ploadbar=  1.01098028913896E+05
 cg2d: Sum(rhs),rhsMax =  -4.01451378582344E+01  3.64460317077457E+00
(PID.TID 0000.0001)  ploadbar=  1.01096837493284E+05
 cg2d: Sum(rhs),rhsMax =  -4.00605245675889E+01  3.65190339008738E+00
(PID.TID 0000.0001)  ploadbar=  1.01095646072671E+05
 cg2d: Sum(rhs),rhsMax =  -4.00227485897701E+01  3.65507043300930E+00
(PID.TID 0000.0001)  ploadbar=  1.01095405107830E+05
 cg2d: Sum(rhs),rhsMax =  -4.00084334915031E+01  3.65619221882751E+00
(PID.TID 0000.0001)  ploadbar=  1.01095164142988E+05
 cg2d: Sum(rhs),rhsMax =  -4.00148550115045E+01  3.65549772630695E+00
(PID.TID 0000.0001)  ploadbar=  1.01094923178147E+05
 cg2d: Sum(rhs),rhsMax =  -4.00491137503028E+01  3.65233350093328E+00
(PID.TID 0000.0001)  ploadbar=  1.01094682213305E+05
 cg2d: Sum(rhs),rhsMax =  -4.01063165893508E+01  3.64715291954276E+00
(PID.TID 0000.0001)  ploadbar=  1.01094441248463E+05
 cg2d: Sum(rhs),rhsMax =  -4.01726677317502E+01  3.64123458000625E+00
(PID.TID 0000.0001)  ploadbar=  1.01094200283622E+05
 cg2d: Sum(rhs),rhsMax =  -4.02564961077689E+01  3.63375390785094E+00
(PID.TID 0000.0001)  ploadbar=  1.01092317698985E+05
 cg2d: Sum(rhs),rhsMax =  -4.06097255116235E+01  3.60220361318498E+00
(PID.TID 0000.0001)  ploadbar=  1.01090435114349E+05
 cg2d: Sum(rhs),rhsMax =  -4.12024156788287E+01  3.55038861159322E+00
(PID.TID 0000.0001)  ploadbar=  1.01088552529712E+05
 cg2d: Sum(rhs),rhsMax =  -4.20023239937124E+01  3.48272745069556E+00
(PID.TID 0000.0001)  ploadbar=  1.01086669945075E+05
 cg2d: Sum(rhs),rhsMax =  -4.31228119109327E+01  3.39213741532304E+00
(PID.TID 0000.0001)  ploadbar=  1.01084787360439E+05
 cg2d: Sum(rhs),rhsMax =  -4.43337264070700E+01  3.29933694745171E+00
(PID.TID 0000.0001)  ploadbar=  1.01082904775802E+05
 cg2d: Sum(rhs),rhsMax =  -4.50165306114931E+01  3.24915556033471E+00
(PID.TID 0000.0001)  ploadbar=  1.01080933697335E+05
 cg2d: Sum(rhs),rhsMax =  -4.57058392181317E+01  3.20000923752593E+00
(PID.TID 0000.0001)  ploadbar=  1.01078962618867E+05
 cg2d: Sum(rhs),rhsMax =  -4.63572914229045E+01  3.15488345847152E+00
(PID.TID 0000.0001)  ploadbar=  1.01076991540400E+05
 cg2d: Sum(rhs),rhsMax =  -4.69518424998633E+01  3.11475773308935E+00
(PID.TID 0000.0001)  ploadbar=  1.01075020461933E+05
 cg2d: Sum(rhs),rhsMax =  -4.74842647138791E+01  3.07962556262408E+00
(PID.TID 0000.0001)  ploadbar=  1.01073049383465E+05
 cg2d: Sum(rhs),rhsMax =  -4.79511491884929E+01  3.04938182841371E+00
(PID.TID 0000.0001)  ploadbar=  1.01071078304998E+05
 cg2d: Sum(rhs),rhsMax =  -4.83620147337189E+01  3.02320374673667E+00
(PID.TID 0000.0001)  ploadbar=  1.01069680016471E+05
 cg2d: Sum(rhs),rhsMax =  -4.87419088106183E+01  2.99934390133565E+00
(PID.TID 0000.0001)  ploadbar=  1.01068281727943E+05
 cg2d: Sum(rhs),rhsMax =  -4.90915320717569E+01  2.97765259944557E+00
(PID.TID 0000.0001)  ploadbar=  1.01066883439416E+05
 cg2d: Sum(rhs),rhsMax =  -4.94105219742629E+01  2.95806223439032E+00
(PID.TID 0000.0001)  ploadbar=  1.01065485150889E+05
 cg2d: Sum(rhs),rhsMax =  -4.97039721460497E+01  2.94018963247922E+00
(PID.TID 0000.0001)  ploadbar=  1.01064086862362E+05
 cg2d: Sum(rhs),rhsMax =  -4.99725134438108E+01  2.92393706245175E+00
(PID.TID 0000.0001)  ploadbar=  1.01062688573834E+05
 cg2d: Sum(rhs),rhsMax =  -5.02606293158777E+01  2.90683080265702E+00
(PID.TID 0000.0001)  ploadbar=  1.01061131135178E+05
 cg2d: Sum(rhs),rhsMax =  -5.05890053565642E+01  2.88768927139405E+00
(PID.TID 0000.0001)  ploadbar=  1.01059573696522E+05
 cg2d: Sum(rhs),rhsMax =  -5.09595052434595E+01  2.86647779789386E+00
(PID.TID 0000.0001)  ploadbar=  1.01058016257866E+05
 cg2d: Sum(rhs),rhsMax =  -5.13676200520955E+01  2.84353009728229E+00
(PID.TID 0000.0001)  ploadbar=  1.01056458819210E+05
 cg2d: Sum(rhs),rhsMax =  -5.18109834967116E+01  2.81905980173247E+00
(PID.TID 0000.0001)  ploadbar=  1.01054901380554E+05
 cg2d: Sum(rhs),rhsMax =  -5.22909854593154E+01  2.79307823289816E+00
(PID.TID 0000.0001)  ploadbar=  1.01053343941898E+05
 cg2d: Sum(rhs),rhsMax =  -5.28062956160969E+01  2.76571861267683E+00
(PID.TID 0000.0001)  ploadbar=  1.01052850953448E+05
 cg2d: Sum(rhs),rhsMax =  -5.33708173176307E+01  2.73634601708785E+00
(PID.TID 0000.0001)  ploadbar=  1.01052357964999E+05
 cg2d: Sum(rhs),rhsMax =  -5.40094403919430E+01  2.70385020750991E+00
(PID.TID 0000.0001)  ploadbar=  1.01051864976549E+05
 cg2d: Sum(rhs),rhsMax =  -5.47313247994965E+01  2.66801973701484E+00
(PID.TID 0000.0001)  ploadbar=  1.01051371988099E+05
 cg2d: Sum(rhs),rhsMax =  -5.55411987517950E+01  2.62891056439563E+00
(PID.TID 0000.0001)  ploadbar=  1.01050878999649E+05
 cg2d: Sum(rhs),rhsMax =  -5.64394789372055E+01  2.58681617034265E+00
(PID.TID 0000.0001)  ploadbar=  1.01050386011199E+05
 cg2d: Sum(rhs),rhsMax =  -5.74385386767177E+01  2.54161285914051E+00
(PID.TID 0000.0001)  ploadbar=  1.01049376001530E+05
 cg2d: Sum(rhs),rhsMax =  -5.85181345076919E+01  2.49454403418455E+00
(PID.TID 0000.0001)  ploadbar=  1.01048365991861E+05
 cg2d: Sum(rhs),rhsMax =  -5.96706726600294E+01  2.44620376408363E+00
(PID.TID 0000.0001)  ploadbar=  1.01047355982192E+05
 cg2d: Sum(rhs),rhsMax =  -6.08963097941219E+01  2.39682579779787E+00
(PID.TID 0000.0001)  ploadbar=  1.01046345972523E+05
 cg2d: Sum(rhs),rhsMax =  -6.22041286158595E+01  2.34628860289390E+00
(PID.TID 0000.0001)  ploadbar=  1.01045335962854E+05
 cg2d: Sum(rhs),rhsMax =  -6.35862512039005E+01  2.29512533041769E+00
(PID.TID 0000.0001)  ploadbar=  1.01044325953185E+05
 cg2d: Sum(rhs),rhsMax =  -6.49631362080145E+01  2.24631506544274E+00
(PID.TID 0000.0001)  ploadbar=  1.01044375167352E+05
 cg2d: Sum(rhs),rhsMax =  -6.62683825364035E+01  2.20189382617145E+00
(PID.TID 0000.0001)  ploadbar=  1.01044424381518E+05
 cg2d: Sum(rhs),rhsMax =  -6.74092185272724E+01  2.16442990584749E+00
(PID.TID 0000.0001)  ploadbar=  1.01044473595685E+05
 cg2d: Sum(rhs),rhsMax =  -6.83693787029705E+01  2.13380251365004E+00
(PID.TID 0000.0001)  ploadbar=  1.01044522809852E+05
 cg2d: Sum(rhs),rhsMax =  -6.91805690733415E+01  2.10851442529426E+00
(PID.TID 0000.0001)  ploadbar=  1.01044572024018E+05
 cg2d: Sum(rhs),rhsMax =  -6.98801084207480E+01  2.08709829690252E+00
(PID.TID 0000.0001)  ploadbar=  1.01044621238185E+05
 cg2d: Sum(rhs),rhsMax =  -7.05601928508166E+01  2.06677428002925E+00
(PID.TID 0000.0001)  ploadbar=  1.01044958477107E+05
 cg2d: Sum(rhs),rhsMax =  -7.12774821252856E+01  2.04584118773783E+00
(PID.TID 0000.0001)  ploadbar=  1.01045295716029E+05
 cg2d: Sum(rhs),rhsMax =  -7.20412368777819E+01  2.02407814892437E+00
(PID.TID 0000.0001)  ploadbar=  1.01045632954952E+05
 cg2d: Sum(rhs),rhsMax =  -7.28671209113719E+01  2.00111192393251E+00
(PID.TID 0000.0001)  ploadbar=  1.01045970193874E+05
 cg2d: Sum(rhs),rhsMax =  -7.37316756757410E+01  1.97766364365076E+00
(PID.TID 0000.0001)  ploadbar=  1.01046307432796E+05
 cg2d: Sum(rhs),rhsMax =  -7.46221680963932E+01  1.95412302217966E+00
(PID.TID 0000.0001)  ploadbar=  1.01046644671718E+05
 cg2d: Sum(rhs),rhsMax =  -7.56431714794101E+01  1.92776826348116E+00
(PID.TID 0000.0001)  ploadbar=  1.01047837092339E+05
 cg2d: Sum(rhs),rhsMax =  -7.69047074269504E+01  1.89611247600801E+00
(PID.TID 0000.0001)  ploadbar=  1.01049029512959E+05
 cg2d: Sum(rhs),rhsMax =  -7.84810738511507E+01  1.85794364948074E+00
(PID.TID 0000.0001)  ploadbar=  1.01050221933580E+05
 cg2d: Sum(rhs),rhsMax =  -7.85196602265320E+01  1.85689474109738E+00
(PID.TID 0000.0001)  ploadbar=  1.01051414354200E+05
 cg2d: Sum(rhs),rhsMax =  -7.85041520255476E+01  1.85706746459259E+00
(PID.TID 0000.0001)  ploadbar=  1.01052606774821E+05
 cg2d: Sum(rhs),rhsMax =  -7.85191805507071E+01  1.85644905059049E+00
(PID.TID 0000.0001)  ploadbar=  1.01053799195441E+05
 cg2d: Sum(rhs),rhsMax =  -7.85860048532011E+01  1.85462597644525E+00
(PID.TID 0000.0001)  ploadbar=  1.01054367768320E+05
 cg2d: Sum(rhs),rhsMax =  -7.86719192897817E+01  1.85236747988517E+00
(PID.TID 0000.0001)  ploadbar=  1.01054936341200E+05
 cg2d: Sum(rhs),rhsMax =  -7.87680825689348E+01  1.84987829930280E+00
(PID.TID 0000.0001)  ploadbar=  1.01055504914079E+05
 cg2d: Sum(rhs),rhsMax =  -7.88626526492356E+01  1.84743036238937E+00
(PID.TID 0000.0001)  ploadbar=  1.01056073486958E+05
 cg2d: Sum(rhs),rhsMax =  -7.89463681587977E+01  1.84523263248121E+00
(PID.TID 0000.0001)  ploadbar=  1.01056642059836E+05
 cg2d: Sum(rhs),rhsMax =  -7.90317838929713E+01  1.84297609947563E+00
(PID.TID 0000.0001)  ploadbar=  1.01057210632715E+05
 cg2d: Sum(rhs),rhsMax =  -7.90744996810466E+01  1.84172518407401E+00
(PID.TID 0000.0001)  ploadbar=  1.01057925722987E+05
 cg2d: Sum(rhs),rhsMax =  -7.91059608635025E+01  1.84073205797566E+00
(PID.TID 0000.0001)  ploadbar=  1.01058640813258E+05
 cg2d: Sum(rhs),rhsMax =  -7.91382819626298E+01  1.83970580387620E+00
(PID.TID 0000.0001)  ploadbar=  1.01059355903529E+05
 cg2d: Sum(rhs),rhsMax =  -7.91715287673423E+01  1.83864048019551E+00
(PID.TID 0000.0001)  ploadbar=  1.01060070993800E+05
 cg2d: Sum(rhs),rhsMax =  -7.92066025159220E+01  1.83751163967454E+00
(PID.TID 0000.0001)  ploadbar=  1.01060786084071E+05
 cg2d: Sum(rhs),rhsMax =  -7.92402464496659E+01  1.83639223212058E+00
(PID.TID 0000.0001)  ploadbar=  1.01061501174342E+05
 cg2d: Sum(rhs),rhsMax =  -7.92860632760803E+01  1.83509409791959E+00
(PID.TID 0000.0001)  ploadbar=  1.01062763897719E+05
 cg2d: Sum(rhs),rhsMax =  -7.93409732183679E+01  1.83366072612269E+00
(PID.TID 0000.0001)  ploadbar=  1.01064026621096E+05
 cg2d: Sum(rhs),rhsMax =  -7.94055757808228E+01  1.83206675396975E+00
(PID.TID 0000.0001)  ploadbar=  1.01065289344474E+05
 cg2d: Sum(rhs),rhsMax =  -7.94728007946345E+01  1.83046972290953E+00
(PID.TID 0000.0001)  ploadbar=  1.01066552067851E+05
 cg2d: Sum(rhs),rhsMax =  -7.95277509067068E+01  1.82920640321523E+00
(PID.TID 0000.0001)  ploadbar=  1.01067814791228E+05
 cg2d: Sum(rhs),rhsMax =  -7.95704386080957E+01  1.82827621070837E+00
(PID.TID 0000.0001)  ploadbar=  1.01069077514605E+05
 cg2d: Sum(rhs),rhsMax =  -7.96035320625152E+01  1.82754254335076E+00
(PID.TID 0000.0001)  ploadbar=  1.01069568281169E+05
 cg2d: Sum(rhs),rhsMax =  -7.96375400438654E+01  1.82675276630066E+00
(PID.TID 0000.0001)  ploadbar=  1.01070059047733E+05
 cg2d: Sum(rhs),rhsMax =  -7.96633270028446E+01  1.82611583186568E+00
(PID.TID 0000.0001)  ploadbar=  1.01070549814297E+05
 cg2d: Sum(rhs),rhsMax =  -7.96868035286390E+01  1.82549202274722E+00
(PID.TID 0000.0001)  ploadbar=  1.01071040580861E+05
 cg2d: Sum(rhs),rhsMax =  -7.97120493373916E+01  1.82478325408874E+00
(PID.TID 0000.0001)  ploadbar=  1.01071531347425E+05
 cg2d: Sum(rhs),rhsMax =  -7.97395209242539E+01  1.82396331314978E+00
(PID.TID 0000.0001)  ploadbar=  1.01072022113989E+05
 cg2d: Sum(rhs),rhsMax =  -7.97801215007689E+01  1.82285217544597E+00
(PID.TID 0000.0001)  ploadbar=  1.01071307574006E+05
 cg2d: Sum(rhs),rhsMax =  -7.98307226880083E+01  1.82151131587041E+00
(PID.TID 0000.0001)  ploadbar=  1.01070593034022E+05
 cg2d: Sum(rhs),rhsMax =  -7.98743729900646E+01  1.82031681169570E+00
(PID.TID 0000.0001)  ploadbar=  1.01069878494039E+05
 cg2d: Sum(rhs),rhsMax =  -7.99140144173289E+01  1.81919379260493E+00
(PID.TID 0000.0001)  ploadbar=  1.01069163954055E+05
 cg2d: Sum(rhs),rhsMax =  -7.99498127733651E+01  1.81812597797963E+00
(PID.TID 0000.0001)  ploadbar=  1.01068449414072E+05
 cg2d: Sum(rhs),rhsMax =  -7.99773846149024E+01  1.81720376417499E+00
(PID.TID 0000.0001)  ploadbar=  1.01067734874089E+05
 cg2d: Sum(rhs),rhsMax =  -8.00003065328432E+01  1.81637180106104E+00
(PID.TID 0000.0001)  ploadbar=  1.01067195335303E+05
 cg2d: Sum(rhs),rhsMax =  -8.00069882168082E+01  1.81588276128016E+00
(PID.TID 0000.0001)  ploadbar=  1.01066655796518E+05
 cg2d: Sum(rhs),rhsMax =  -8.00015861816109E+01  1.81563254024045E+00
(PID.TID 0000.0001)  ploadbar=  1.01066116257732E+05
 cg2d: Sum(rhs),rhsMax =  -7.99885772159607E+01  1.81551442794842E+00
(PID.TID 0000.0001)  ploadbar=  1.01065576718946E+05
 cg2d: Sum(rhs),rhsMax =  -7.99732860762257E+01  1.81540343492719E+00
(PID.TID 0000.0001)  ploadbar=  1.01065037180161E+05
 cg2d: Sum(rhs),rhsMax =  -7.99594199122626E+01  1.81521245103797E+00
(PID.TID 0000.0001)  ploadbar=  1.01064497641375E+05
 cg2d: Sum(rhs),rhsMax =  -7.99719868152652E+01  1.81452489531628E+00
(PID.TID 0000.0001)  ploadbar=  1.01063545672679E+05
 cg2d: Sum(rhs),rhsMax =  -7.99865526967032E+01  1.81387563359094E+00
(PID.TID 0000.0001)  ploadbar=  1.01062593703983E+05
 cg2d: Sum(rhs),rhsMax =  -7.99999067300414E+01  1.81331502534145E+00
(PID.TID 0000.0001)  ploadbar=  1.01061641735286E+05
 cg2d: Sum(rhs),rhsMax =  -8.00149837660057E+01  1.81276537160571E+00
(PID.TID 0000.0001)  ploadbar=  1.01060689766590E+05
 cg2d: Sum(rhs),rhsMax =  -8.00238521825008E+01  1.81240536712597E+00
(PID.TID 0000.0001)  ploadbar=  1.01059737797894E+05
 cg2d: Sum(rhs),rhsMax =  -8.00309404279512E+01  1.81213011884868E+00
(PID.TID 0000.0001)  ploadbar=  1.01058785829197E+05
 cg2d: Sum(rhs),rhsMax =  -8.00153346535685E+01  1.81237017216734E+00
(PID.TID 0000.0001)  ploadbar=  1.01057181167340E+05
 cg2d: Sum(rhs),rhsMax =  -7.99840996457022E+01  1.81295550323654E+00
(PID.TID 0000.0001)  ploadbar=  1.01055576505482E+05
 cg2d: Sum(rhs),rhsMax =  -7.99441062163996E+01  1.81373137496012E+00
(PID.TID 0000.0001)  ploadbar=  1.01053971843624E+05
 cg2d: Sum(rhs),rhsMax =  -7.98994299103785E+01  1.81460812116154E+00
(PID.TID 0000.0001)  ploadbar=  1.01052367181766E+05
 cg2d: Sum(rhs),rhsMax =  -7.98657091895744E+01  1.81522785980590E+00
(PID.TID 0000.0001)  ploadbar=  1.01050762519909E+05
 cg2d: Sum(rhs),rhsMax =  -7.98501394746199E+01  1.81541452615452E+00
(PID.TID 0000.0001)  ploadbar=  1.01049157858051E+05
 cg2d: Sum(rhs),rhsMax =  -7.98300930927234E+01  1.81573187990063E+00
(PID.TID 0000.0001)  ploadbar=  1.01046704035204E+05
 cg2d: Sum(rhs),rhsMax =  -7.98180784396737E+01  1.81588195400031E+00
(PID.TID 0000.0001)  ploadbar=  1.01044250212357E+05
 cg2d: Sum(rhs),rhsMax =  -7.98191608987907E+01  1.81574198332744E+00
(PID.TID 0000.0001)  ploadbar=  1.01041796389510E+05
 cg2d: Sum(rhs),rhsMax =  -7.98179609051812E+01  1.81565090920382E+00
(PID.TID 0000.0001)  ploadbar=  1.01039342566663E+05
 cg2d: Sum(rhs),rhsMax =  -7.98090850361016E+01  1.81571866113303E+00
(PID.TID 0000.0001)  ploadbar=  1.01036888743816E+05
 cg2d: Sum(rhs),rhsMax =  -7.97948552529928E+01  1.81587895636755E+00
(PID.TID 0000.0001)  ploadbar=  1.01034434920969E+05
 cg2d: Sum(rhs),rhsMax =  -7.97534153050656E+01  1.81664108650026E+00
(PID.TID 0000.0001)  ploadbar=  1.01033036701948E+05
 cg2d: Sum(rhs),rhsMax =  -7.96963714146713E+01  1.81773226264776E+00
(PID.TID 0000.0001)  ploadbar=  1.01031638482926E+05
 cg2d: Sum(rhs),rhsMax =  -7.96280342470517E+01  1.81904420947129E+00
(PID.TID 0000.0001)  ploadbar=  1.01030240263905E+05
 cg2d: Sum(rhs),rhsMax =  -7.95469266904330E+01  1.82059993889365E+00
(PID.TID 0000.0001)  ploadbar=  1.01028842044884E+05
 cg2d: Sum(rhs),rhsMax =  -7.94480970887748E+01  1.82251068323167E+00
(PID.TID 0000.0001)  ploadbar=  1.01027443825863E+05
 cg2d: Sum(rhs),rhsMax =  -7.93330264655060E+01  1.82474307297156E+00
(PID.TID 0000.0001)  ploadbar=  1.01026045606842E+05
 cg2d: Sum(rhs),rhsMax =  -7.92313008133962E+01  1.82675487468555E+00
(PID.TID 0000.0001)  ploadbar=  1.01025639326636E+05
 cg2d: Sum(rhs),rhsMax =  -7.91309209161746E+01  1.82880538368943E+00
(PID.TID 0000.0001)  ploadbar=  1.01025233046430E+05
 cg2d: Sum(rhs),rhsMax =  -7.90316913326485E+01  1.83088512989633E+00
(PID.TID 0000.0001)  ploadbar=  1.01024826766224E+05
 cg2d: Sum(rhs),rhsMax =  -7.89412962502260E+01  1.83280234431065E+00
(PID.TID 0000.0001)  ploadbar=  1.01024420486018E+05
 cg2d: Sum(rhs),rhsMax =  -7.88577445128349E+01  1.83458919125573E+00
(PID.TID 0000.0001)  ploadbar=  1.01024014205811E+05
 cg2d: Sum(rhs),rhsMax =  -7.87805931254513E+01  1.83624893538956E+00
(PID.TID 0000.0001)  ploadbar=  1.01023607925605E+05
 cg2d: Sum(rhs),rhsMax =  -7.87703472284388E+01  1.83632327870446E+00
(PID.TID 0000.0001)  ploadbar=  1.01024084654608E+05
 cg2d: Sum(rhs),rhsMax =  -7.87835261449530E+01  1.83581559140047E+00
(PID.TID 0000.0001)  ploadbar=  1.01024561383611E+05
 cg2d: Sum(rhs),rhsMax =  -7.88054833941660E+01  1.83506431801835E+00
(PID.TID 0000.0001)  ploadbar=  1.01025038112614E+05
 cg2d: Sum(rhs),rhsMax =  -7.88309854938235E+01  1.83418872829125E+00
(PID.TID 0000.0001)  ploadbar=  1.01025514841617E+05
 cg2d: Sum(rhs),rhsMax =  -7.88536094075959E+01  1.83332857380324E+00
(PID.TID 0000.0001)  ploadbar=  1.01025991570620E+05
 cg2d: Sum(rhs),rhsMax =  -7.88623393162264E+01  1.83272811826822E+00
(PID.TID 0000.0001)  ploadbar=  1.01026468299623E+05
 cg2d: Sum(rhs),rhsMax =  -7.89084813031447E+01  1.83130261519839E+00
(PID.TID 0000.0001)  ploadbar=  1.01026349296720E+05
 cg2d: Sum(rhs),rhsMax =  -7.90137906905279E+01  1.82854240861830E+00
(PID.TID 0000.0001)  ploadbar=  1.01026230293816E+05
 cg2d: Sum(rhs),rhsMax =  -7.91600257635209E+01  1.82487222245802E+00
(PID.TID 0000.0001)  ploadbar=  1.01026111290913E+05
 cg2d: Sum(rhs),rhsMax =  -7.93363665705270E+01  1.82054111560200E+00
(PID.TID 0000.0001)  ploadbar=  1.01025992288010E+05
 cg2d: Sum(rhs),rhsMax =  -7.95337155470148E+01  1.81574814080912E+00
(PID.TID 0000.0001)  ploadbar=  1.01025873285106E+05
 cg2d: Sum(rhs),rhsMax =  -7.97508974948590E+01  1.81050950401960E+00
(PID.TID 0000.0001)  ploadbar=  1.01025754282203E+05
 cg2d: Sum(rhs),rhsMax =  -7.99712138779122E+01  1.80520957797072E+00
(PID.TID 0000.0001)  ploadbar=  1.01024567189430E+05
 cg2d: Sum(rhs),rhsMax =  -8.02175998344648E+01  1.79932000791683E+00
(PID.TID 0000.0001)  ploadbar=  1.01023380096656E+05
 cg2d: Sum(rhs),rhsMax =  -8.04685829633960E+01  1.79332292906017E+00
(PID.TID 0000.0001)  ploadbar=  1.01022193003883E+05
 cg2d: Sum(rhs),rhsMax =  -8.07299066967683E+01  1.78708658363818E+00
(PID.TID 0000.0001)  ploadbar=  1.01021005911110E+05
 cg2d: Sum(rhs),rhsMax =  -8.09900995389248E+01  1.78086363737602E+00
(PID.TID 0000.0001)  ploadbar=  1.01019818818337E+05
 cg2d: Sum(rhs),rhsMax =  -8.12451964434698E+01  1.77473676691048E+00
(PID.TID 0000.0001)  ploadbar=  1.01018631725563E+05
 cg2d: Sum(rhs),rhsMax =  -8.14328647702252E+01  1.77021612139449E+00
(PID.TID 0000.0001)  ploadbar=  1.01017490181641E+05
 cg2d: Sum(rhs),rhsMax =  -8.16172170912265E+01  1.76587384590541E+00
(PID.TID 0000.0001)  ploadbar=  1.01016348637719E+05
 cg2d: Sum(rhs),rhsMax =  -8.17895298175888E+01  1.76188218801959E+00
(PID.TID 0000.0001)  ploadbar=  1.01015207093797E+05
 cg2d: Sum(rhs),rhsMax =  -8.19412380979315E+01  1.75840608851241E+00
(PID.TID 0000.0001)  ploadbar=  1.01014065549875E+05
 cg2d: Sum(rhs),rhsMax =  -8.20747209919063E+01  1.75538221166685E+00
(PID.TID 0000.0001)  ploadbar=  1.01012924005953E+05
 cg2d: Sum(rhs),rhsMax =  -8.22063808411430E+01  1.75245401765981E+00
(PID.TID 0000.0001)  ploadbar=  1.01011782462030E+05
 cg2d: Sum(rhs),rhsMax =  -8.22083899202659E+01  1.75231841602193E+00
(PID.TID 0000.0001)  ploadbar=  1.01010438487729E+05
 cg2d: Sum(rhs),rhsMax =  -8.21329210701061E+01  1.75384939506315E+00
(PID.TID 0000.0001)  ploadbar=  1.01009094513427E+05
 cg2d: Sum(rhs),rhsMax =  -8.20670097063826E+01  1.75518981281990E+00
(PID.TID 0000.0001)  ploadbar=  1.01007750539125E+05
 cg2d: Sum(rhs),rhsMax =  -8.21198881233992E+01  1.75400107182994E+00
(PID.TID 0000.0001)  ploadbar=  1.01006406564824E+05
 cg2d: Sum(rhs),rhsMax =  -8.23912802188188E+01  1.74816990659392E+00
(PID.TID 0000.0001)  ploadbar=  1.01005062590522E+05
 cg2d: Sum(rhs),rhsMax =  -8.28808086668766E+01  1.73778487525944E+00
(PID.TID 0000.0001)  ploadbar=  1.01003718616220E+05
 cg2d: Sum(rhs),rhsMax =  -8.34273226997604E+01  1.72638034345216E+00
(PID.TID 0000.0001)  ploadbar=  1.01002344153537E+05
 cg2d: Sum(rhs),rhsMax =  -8.39641513143660E+01  1.71534963399183E+00
(PID.TID 0000.0001)  ploadbar=  1.01000969690853E+05
 cg2d: Sum(rhs),rhsMax =  -8.44243018468733E+01  1.70602324166523E+00
(PID.TID 0000.0001)  ploadbar=  1.00999595228169E+05
 cg2d: Sum(rhs),rhsMax =  -8.48127184341650E+01  1.69823569979755E+00
(PID.TID 0000.0001)  ploadbar=  1.00998220765486E+05
 cg2d: Sum(rhs),rhsMax =  -8.52133419079473E+01  1.69026655566289E+00
(PID.TID 0000.0001)  ploadbar=  1.00996846302802E+05
 cg2d: Sum(rhs),rhsMax =  -8.54106884862926E+01  1.68635215907636E+00
(PID.TID 0000.0001)  ploadbar=  1.00995471840118E+05
 cg2d: Sum(rhs),rhsMax =  -8.53410980865942E+01  1.68769733065518E+00
(PID.TID 0000.0001)  ploadbar=  1.00994495286885E+05
 cg2d: Sum(rhs),rhsMax =  -8.53238567470941E+01  1.68797987637111E+00
(PID.TID 0000.0001)  ploadbar=  1.00993518733651E+05
 cg2d: Sum(rhs),rhsMax =  -8.53010695030114E+01  1.68833716653068E+00
(PID.TID 0000.0001)  ploadbar=  1.00992542180417E+05
 cg2d: Sum(rhs),rhsMax =  -8.52224478928152E+01  1.68976048310011E+00
(PID.TID 0000.0001)  ploadbar=  1.00991565627183E+05
 cg2d: Sum(rhs),rhsMax =  -8.51053482315357E+01  1.69190427598592E+00
(PID.TID 0000.0001)  ploadbar=  1.00990589073949E+05
 cg2d: Sum(rhs),rhsMax =  -8.49629440609796E+01  1.69450744050217E+00
(PID.TID 0000.0001)  ploadbar=  1.00989612520715E+05
 cg2d: Sum(rhs),rhsMax =  -8.49294047658669E+01  1.69504955953017E+00
(PID.TID 0000.0001)  ploadbar=  1.00989429139621E+05
 cg2d: Sum(rhs),rhsMax =  -8.49169687674496E+01  1.69526051525264E+00
(PID.TID 0000.0001)  ploadbar=  1.00989245758527E+05
 cg2d: Sum(rhs),rhsMax =  -8.49148548858016E+01  1.69533874975471E+00
(PID.TID 0000.0001)  ploadbar=  1.00989062377432E+05
 cg2d: Sum(rhs),rhsMax =  -8.49054354949346E+01  1.69562336287928E+00
(PID.TID 0000.0001)  ploadbar=  1.00988878996338E+05
 cg2d: Sum(rhs),rhsMax =  -8.48734926174789E+01  1.69640043067233E+00
(PID.TID 0000.0001)  ploadbar=  1.00988695615244E+05
 cg2d: Sum(rhs),rhsMax =  -8.48103787595401E+01  1.69783857101169E+00
(PID.TID 0000.0001)  ploadbar=  1.00988512234150E+05
 cg2d: Sum(rhs),rhsMax =  -8.45396477438644E+01  1.70344201542445E+00
(PID.TID 0000.0001)  ploadbar=  1.00989081207214E+05
 cg2d: Sum(rhs),rhsMax =  -8.41748860758550E+01  1.71097315149992E+00
(PID.TID 0000.0001)  ploadbar=  1.00989650180279E+05
 cg2d: Sum(rhs),rhsMax =  -8.36990991664255E+01  1.72082871285103E+00
(PID.TID 0000.0001)  ploadbar=  1.00990219153343E+05
 cg2d: Sum(rhs),rhsMax =  -8.31534959567417E+01  1.73222697459012E+00
(PID.TID 0000.0001)  ploadbar=  1.00990788126408E+05
 cg2d: Sum(rhs),rhsMax =  -8.25614625395251E+01  1.74472919779157E+00
(PID.TID 0000.0001)  ploadbar=  1.00991357099472E+05
 cg2d: Sum(rhs),rhsMax =  -8.19400718912898E+01  1.75800620277677E+00
(PID.TID 0000.0001)  ploadbar=  1.00991926072537E+05
 cg2d: Sum(rhs),rhsMax =  -8.11227875223773E+01  1.77576123044585E+00
(PID.TID 0000.0001)  ploadbar=  1.00993028721019E+05
 cg2d: Sum(rhs),rhsMax =  -8.01680204524989E+01  1.79693837662243E+00
(PID.TID 0000.0001)  ploadbar=  1.00994131369501E+05
 cg2d: Sum(rhs),rhsMax =  -7.91164425294587E+01  1.82082038350674E+00
(PID.TID 0000.0001)  ploadbar=  1.00995234017984E+05
 cg2d: Sum(rhs),rhsMax =  -7.80841300159607E+01  1.84484763073843E+00
(PID.TID 0000.0001)  ploadbar=  1.00996336666466E+05
 cg2d: Sum(rhs),rhsMax =  -7.70843331695922E+01  1.86867235619395E+00
(PID.TID 0000.0001)  ploadbar=  1.00997439314948E+05
 cg2d: Sum(rhs),rhsMax =  -7.61261099757723E+01  1.89202047059198E+00
(PID.TID 0000.0001)  ploadbar=  1.00998541963430E+05
 cg2d: Sum(rhs),rhsMax =  -7.53160753924435E+01  1.91216546451826E+00
(PID.TID 0000.0001)  ploadbar=  1.01001164703723E+05
 cg2d: Sum(rhs),rhsMax =  -7.46502258122711E+01  1.92897800795954E+00
(PID.TID 0000.0001)  ploadbar=  1.01003787444017E+05
 cg2d: Sum(rhs),rhsMax =  -7.41098477615154E+01  1.94275127586816E+00
(PID.TID 0000.0001)  ploadbar=  1.01006410184310E+05
 cg2d: Sum(rhs),rhsMax =  -7.36461433184716E+01  1.95463254026977E+00
(PID.TID 0000.0001)  ploadbar=  1.01009032924603E+05
 cg2d: Sum(rhs),rhsMax =  -7.33093340786033E+01  1.96318993511602E+00
(PID.TID 0000.0001)  ploadbar=  1.01011655664897E+05
 cg2d: Sum(rhs),rhsMax =  -6.85831011447749E+01  2.09794529864142E+00
(PID.TID 0000.0001)  ploadbar=  1.01014278405190E+05
 cg2d: Sum(rhs),rhsMax =  -6.45762484021635E+01  2.22768878763461E+00
(PID.TID 0000.0001)  ploadbar=  1.01016545521486E+05
 cg2d: Sum(rhs),rhsMax =  -6.07369903736456E+01  2.36816648884202E+00
(PID.TID 0000.0001)  ploadbar=  1.01018812637782E+05
 cg2d: Sum(rhs),rhsMax =  -5.69691491593237E+01  2.52451384956370E+00
(PID.TID 0000.0001)  ploadbar=  1.01021079754078E+05
 cg2d: Sum(rhs),rhsMax =  -5.34011546257996E+01  2.69294239637378E+00
(PID.TID 0000.0001)  ploadbar=  1.01023346870374E+05
 cg2d: Sum(rhs),rhsMax =  -5.00819968524382E+01  2.87120761916930E+00
(PID.TID 0000.0001)  ploadbar=  1.01025613986670E+05
 cg2d: Sum(rhs),rhsMax =  -4.70394384715454E+01  3.05675781957133E+00
(PID.TID 0000.0001)  ploadbar=  1.01027881102966E+05
 cg2d: Sum(rhs),rhsMax =  -4.43224009271644E+01  3.24400457246412E+00
(PID.TID 0000.0001)  ploadbar=  1.01030789601110E+05
 cg2d: Sum(rhs),rhsMax =  -4.19210841741084E+01  3.42968822233968E+00
(PID.TID 0000.0001)  ploadbar=  1.01033698099253E+05
 cg2d: Sum(rhs),rhsMax =  -3.98293177825992E+01  3.60963552243720E+00
(PID.TID 0000.0001)  ploadbar=  1.01036606597397E+05
 cg2d: Sum(rhs),rhsMax =  -3.80043748750632E+01  3.78274485010339E+00
(PID.TID 0000.0001)  ploadbar=  1.01039515095541E+05
 cg2d: Sum(rhs),rhsMax =  -3.63950146331932E+01  3.94972734905383E+00
(PID.TID 0000.0001)  ploadbar=  1.01042423593685E+05
 cg2d: Sum(rhs),rhsMax =  -3.49682401465082E+01  4.11051040714836E+00
(PID.TID 0000.0001)  ploadbar=  1.01045332091829E+05
 cg2d: Sum(rhs),rhsMax =  -3.37748303650193E+01  4.25537720342697E+00
(PID.TID 0000.0001)  ploadbar=  1.01047107492887E+05
 cg2d: Sum(rhs),rhsMax =  -3.28090348076112E+01  4.38023931878576E+00
(PID.TID 0000.0001)  ploadbar=  1.01048882893945E+05
 cg2d: Sum(rhs),rhsMax =  -3.20733719417073E+01  4.48024534846806E+00
(PID.TID 0000.0001)  ploadbar=  1.01050658295004E+05
 cg2d: Sum(rhs),rhsMax =  -3.15372413483058E+01  4.55584350989226E+00
(PID.TID 0000.0001)  ploadbar=  1.01052433696062E+05
 cg2d: Sum(rhs),rhsMax =  -3.11566265059249E+01  4.61079433693700E+00
(PID.TID 0000.0001)  ploadbar=  1.01054209097120E+05
 cg2d: Sum(rhs),rhsMax =  -3.08839753313835E+01  4.65062443908267E+00
(PID.TID 0000.0001)  ploadbar=  1.01055984498178E+05
 cg2d: Sum(rhs),rhsMax =  -3.06601023047185E+01  4.68366841077780E+00
(PID.TID 0000.0001)  ploadbar=  1.01058338061934E+05
 cg2d: Sum(rhs),rhsMax =  -3.04830137778669E+01  4.70989412108997E+00
(PID.TID 0000.0001)  ploadbar=  1.01060691625691E+05
 cg2d: Sum(rhs),rhsMax =  -3.03436112852602E+01  4.73045781614291E+00
(PID.TID 0000.0001)  ploadbar=  1.01063045189447E+05
 cg2d: Sum(rhs),rhsMax =  -3.02396337676480E+01  4.74554419354205E+00
(PID.TID 0000.0001)  ploadbar=  1.01065398753203E+05
 cg2d: Sum(rhs),rhsMax =  -3.01776312628066E+01  4.75399673013814E+00
(PID.TID 0000.0001)  ploadbar=  1.01067752316959E+05
 cg2d: Sum(rhs),rhsMax =  -3.01857588700787E+01  4.75130052649551E+00
(PID.TID 0000.0001)  ploadbar=  1.01070105880715E+05
 cg2d: Sum(rhs),rhsMax =  -3.03971747110661E+01  4.71710865937825E+00
(PID.TID 0000.0001)  ploadbar=  1.01071310237694E+05
 cg2d: Sum(rhs),rhsMax =  -3.07036588081083E+01  4.66909582546910E+00
(PID.TID 0000.0001)  ploadbar=  1.01072514594673E+05
 cg2d: Sum(rhs),rhsMax =  -3.10900141541950E+01  4.61031742333220E+00
(PID.TID 0000.0001)  ploadbar=  1.01073718951652E+05
 cg2d: Sum(rhs),rhsMax =  -3.15537154168352E+01  4.54193731813795E+00
(PID.TID 0000.0001)  ploadbar=  1.01074923308630E+05
 cg2d: Sum(rhs),rhsMax =  -3.20975953321774E+01  4.46445460407527E+00
(PID.TID 0000.0001)  ploadbar=  1.01076127665609E+05
 cg2d: Sum(rhs),rhsMax =  -3.27039805571220E+01  4.38123806498934E+00
(PID.TID 0000.0001)  ploadbar=  1.01077332022588E+05
 cg2d: Sum(rhs),rhsMax =  -3.28682202079101E+01  4.35894804771307E+00
(PID.TID 0000.0001)  ploadbar=  1.01077887013803E+05
 cg2d: Sum(rhs),rhsMax =  -3.30120960763937E+01  4.33957250155616E+00
(PID.TID 0000.0001)  ploadbar=  1.01078442005018E+05
 cg2d: Sum(rhs),rhsMax =  -3.31206588984954E+01  4.32496448701064E+00
(PID.TID 0000.0001)  ploadbar=  1.01078996996234E+05
 cg2d: Sum(rhs),rhsMax =  -3.31744009133407E+01  4.31755036970264E+00
(PID.TID 0000.0001)  ploadbar=  1.01079551987449E+05
 cg2d: Sum(rhs),rhsMax =  -3.31387239403216E+01  4.32174290805210E+00
(PID.TID 0000.0001)  ploadbar=  1.01080106978665E+05
 cg2d: Sum(rhs),rhsMax =  -3.30908840445004E+01  4.32745389621262E+00
(PID.TID 0000.0001)  ploadbar=  1.01080661969880E+05
 cg2d: Sum(rhs),rhsMax =  -3.32585567834643E+01  4.30508101872176E+00
(PID.TID 0000.0001)  ploadbar=  1.01080982710045E+05
 cg2d: Sum(rhs),rhsMax =  -3.35134942026829E+01  4.27173542743383E+00
(PID.TID 0000.0001)  ploadbar=  1.01081303450210E+05
 cg2d: Sum(rhs),rhsMax =  -3.37854768246953E+01  4.23667281844908E+00
(PID.TID 0000.0001)  ploadbar=  1.01081624190374E+05
 cg2d: Sum(rhs),rhsMax =  -3.40479038009849E+01  4.20324188149290E+00
(PID.TID 0000.0001)  ploadbar=  1.01081944930539E+05
 cg2d: Sum(rhs),rhsMax =  -3.43020345417552E+01  4.17120752415852E+00
(PID.TID 0000.0001)  ploadbar=  1.01082265670704E+05
 cg2d: Sum(rhs),rhsMax =  -3.45514789734492E+01  4.14007429820053E+00
(PID.TID 0000.0001)  ploadbar=  1.01082586410869E+05
 cg2d: Sum(rhs),rhsMax =  -3.48334268579418E+01  4.10557094759421E+00
(PID.TID 0000.0001)  ploadbar=  1.01082160799389E+05
 cg2d: Sum(rhs),rhsMax =  -3.51341006551015E+01  4.06944385462480E+00
(PID.TID 0000.0001)  ploadbar=  1.01081735187909E+05
 cg2d: Sum(rhs),rhsMax =  -3.53987546560832E+01  4.03801305711892E+00
(PID.TID 0000.0001)  ploadbar=  1.01081309576430E+05
 cg2d: Sum(rhs),rhsMax =  -3.56307660793024E+01  4.01069417354349E+00
(PID.TID 0000.0001)  ploadbar=  1.01080883964950E+05
 cg2d: Sum(rhs),rhsMax =  -3.60161426257677E+01  3.96673841554900E+00
(PID.TID 0000.0001)  ploadbar=  1.01080458353470E+05
 cg2d: Sum(rhs),rhsMax =  -3.63813484495092E+01  3.92584283566842E+00
(PID.TID 0000.0001)  ploadbar=  1.01080032741991E+05
 cg2d: Sum(rhs),rhsMax =  -3.68071842242466E+01  3.87955426084577E+00
(PID.TID 0000.0001)  ploadbar=  1.01079199508022E+05
 cg2d: Sum(rhs),rhsMax =  -3.72057330790217E+01  3.83730435393216E+00
(PID.TID 0000.0001)  ploadbar=  1.01078366274053E+05
 cg2d: Sum(rhs),rhsMax =  -3.75070785792765E+01  3.80593378499619E+00
(PID.TID 0000.0001)  ploadbar=  1.01077533040084E+05
 cg2d: Sum(rhs),rhsMax =  -3.77127143599136E+01  3.78476186025822E+00
(PID.TID 0000.0001)  ploadbar=  1.01076699806115E+05
 cg2d: Sum(rhs),rhsMax =  -3.78446243832159E+01  3.77124575286631E+00
(PID.TID 0000.0001)  ploadbar=  1.01075866572146E+05
 cg2d: Sum(rhs),rhsMax =  -3.79100043913838E+01  3.76449470195174E+00
(PID.TID 0000.0001)  ploadbar=  1.01075033338177E+05
 cg2d: Sum(rhs),rhsMax =  -3.80116489941513E+01  3.75420886047370E+00
(PID.TID 0000.0001)  ploadbar=  1.01074550733611E+05
 cg2d: Sum(rhs),rhsMax =  -3.82057368439581E+01  3.73492451087921E+00
(PID.TID 0000.0001)  ploadbar=  1.01074068129044E+05
 cg2d: Sum(rhs),rhsMax =  -3.85684204274325E+01  3.69958039788288E+00
(PID.TID 0000.0001)  ploadbar=  1.01073585524478E+05
 cg2d: Sum(rhs),rhsMax =  -3.91211586400120E+01  3.64705986572361E+00
(PID.TID 0000.0001)  ploadbar=  1.01073102919911E+05
 cg2d: Sum(rhs),rhsMax =  -3.97687460989208E+01  3.58737945653838E+00
(PID.TID 0000.0001)  ploadbar=  1.01072620315344E+05
 cg2d: Sum(rhs),rhsMax =  -4.04999524737756E+01  3.52226079086360E+00
(PID.TID 0000.0001)  ploadbar=  1.01072137710777E+05
 cg2d: Sum(rhs),rhsMax =  -4.13251799646799E+01  3.45162829212333E+00
(PID.TID 0000.0001)  ploadbar=  1.01072105149548E+05
 cg2d: Sum(rhs),rhsMax =  -4.22286903464950E+01  3.37751980016410E+00
(PID.TID 0000.0001)  ploadbar=  1.01072072588319E+05
 cg2d: Sum(rhs),rhsMax =  -4.31999940905666E+01  3.30133083541945E+00
(PID.TID 0000.0001)  ploadbar=  1.01072040027090E+05
 cg2d: Sum(rhs),rhsMax =  -4.42344564289601E+01  3.22385166341702E+00
(PID.TID 0000.0001)  ploadbar=  1.01072007465860E+05
 cg2d: Sum(rhs),rhsMax =  -4.53298379007785E+01  3.14563316068395E+00
(PID.TID 0000.0001)  ploadbar=  1.01071974904631E+05
 cg2d: Sum(rhs),rhsMax =  -4.64919253853793E+01  3.06663970403411E+00
(PID.TID 0000.0001)  ploadbar=  1.01071942343402E+05
 cg2d: Sum(rhs),rhsMax =  -4.76560763861924E+01  2.99134096475816E+00
(PID.TID 0000.0001)  ploadbar=  1.01071327913834E+05
 cg2d: Sum(rhs),rhsMax =  -4.87889474362581E+01  2.92145835994648E+00
(PID.TID 0000.0001)  ploadbar=  1.01070713484266E+05
 cg2d: Sum(rhs),rhsMax =  -4.98414929344242E+01  2.85929297087230E+00
(PID.TID 0000.0001)  ploadbar=  1.01070099054698E+05
 cg2d: Sum(rhs),rhsMax =  -5.07808941174058E+01  2.80586331646786E+00
(PID.TID 0000.0001)  ploadbar=  1.01069484625130E+05
 cg2d: Sum(rhs),rhsMax =  -5.15851020043240E+01  2.76151570369746E+00
(PID.TID 0000.0001)  ploadbar=  1.01068870195562E+05
 cg2d: Sum(rhs),rhsMax =  -5.22206287286580E+01  2.72722633952216E+00
(PID.TID 0000.0001)  ploadbar=  1.01068255765994E+05
 cg2d: Sum(rhs),rhsMax =  -5.27348816883315E+01  2.70011408663730E+00
(PID.TID 0000.0001)  ploadbar=  1.01068073246127E+05
 cg2d: Sum(rhs),rhsMax =  -5.31680930492023E+01  2.67773157897168E+00
(PID.TID 0000.0001)  ploadbar=  1.01067890726261E+05
 cg2d: Sum(rhs),rhsMax =  -5.35488725958273E+01  2.65841581165215E+00
(PID.TID 0000.0001)  ploadbar=  1.01067708206394E+05
 cg2d: Sum(rhs),rhsMax =  -5.38651928485177E+01  2.64259909336575E+00
(PID.TID 0000.0001)  ploadbar=  1.01067525686527E+05
 cg2d: Sum(rhs),rhsMax =  -5.41161544353553E+01  2.63019211283224E+00
(PID.TID 0000.0001)  ploadbar=  1.01067343166661E+05
 cg2d: Sum(rhs),rhsMax =  -5.42948522173060E+01  2.62143525980937E+00
(PID.TID 0000.0001)  ploadbar=  1.01067160646794E+05
 cg2d: Sum(rhs),rhsMax =  -5.43992599372793E+01  2.61631654097580E+00
(PID.TID 0000.0001)  ploadbar=  1.01067361060295E+05
 cg2d: Sum(rhs),rhsMax =  -5.44548158788799E+01  2.61355242267950E+00
(PID.TID 0000.0001)  ploadbar=  1.01067561473795E+05
 cg2d: Sum(rhs),rhsMax =  -5.44650023418490E+01  2.61295693495015E+00
(PID.TID 0000.0001)  ploadbar=  1.01067761887296E+05
 cg2d: Sum(rhs),rhsMax =  -5.44356399567864E+01  2.61424462961445E+00
(PID.TID 0000.0001)  ploadbar=  1.01067962300796E+05
 cg2d: Sum(rhs),rhsMax =  -5.43750905343923E+01  2.61701136066021E+00
(PID.TID 0000.0001)  ploadbar=  1.01068162714297E+05
 cg2d: Sum(rhs),rhsMax =  -5.42781424894629E+01  2.62151017416214E+00
(PID.TID 0000.0001)  ploadbar=  1.01068363127797E+05
 cg2d: Sum(rhs),rhsMax =  -5.42003580532493E+01  2.62513853591746E+00
(PID.TID 0000.0001)  ploadbar=  1.01069265232358E+05
 cg2d: Sum(rhs),rhsMax =  -5.41477332366397E+01  2.62757767055147E+00
(PID.TID 0000.0001)  ploadbar=  1.01070167336919E+05
 cg2d: Sum(rhs),rhsMax =  -5.41207427377497E+01  2.62877323267503E+00
(PID.TID 0000.0001)  ploadbar=  1.01071069441480E+05
 cg2d: Sum(rhs),rhsMax =  -5.41102953397567E+01  2.62914037111232E+00
(PID.TID 0000.0001)  ploadbar=  1.01071971546040E+05
 cg2d: Sum(rhs),rhsMax =  -5.41115044847120E+01  2.62888974581845E+00
(PID.TID 0000.0001)  ploadbar=  1.01072873650601E+05
 cg2d: Sum(rhs),rhsMax =  -5.41166634530381E+01  2.62837532342816E+00
(PID.TID 0000.0001)  ploadbar=  1.01073775755162E+05
 cg2d: Sum(rhs),rhsMax =  -5.41249427464072E+01  2.62768644124351E+00
(PID.TID 0000.0001)  ploadbar=  1.01074422790850E+05
 cg2d: Sum(rhs),rhsMax =  -5.41349816846310E+01  2.62687818379564E+00
(PID.TID 0000.0001)  ploadbar=  1.01075069826538E+05
 cg2d: Sum(rhs),rhsMax =  -5.41605281847001E+01  2.62527405710745E+00
(PID.TID 0000.0001)  ploadbar=  1.01075716862226E+05
 cg2d: Sum(rhs),rhsMax =  -5.41996047808059E+01  2.62296270345648E+00
(PID.TID 0000.0001)  ploadbar=  1.01076363897914E+05
 cg2d: Sum(rhs),rhsMax =  -5.42494491826800E+01  2.62007579424063E+00
(PID.TID 0000.0001)  ploadbar=  1.01077010933602E+05
 cg2d: Sum(rhs),rhsMax =  -5.43114346288503E+01  2.61654108222492E+00
(PID.TID 0000.0001)  ploadbar=  1.01077657969290E+05
 cg2d: Sum(rhs),rhsMax =  -5.44120405950492E+01  2.61130561600839E+00
(PID.TID 0000.0001)  ploadbar=  1.01077651943103E+05
 cg2d: Sum(rhs),rhsMax =  -5.45564498936372E+01  2.60410830025771E+00
(PID.TID 0000.0001)  ploadbar=  1.01077645916916E+05
 cg2d: Sum(rhs),rhsMax =  -5.47541458216982E+01  2.59449868680849E+00
(PID.TID 0000.0001)  ploadbar=  1.01077639890730E+05
 cg2d: Sum(rhs),rhsMax =  -5.50027834363561E+01  2.58263341696296E+00
(PID.TID 0000.0001)  ploadbar=  1.01077633864543E+05
 cg2d: Sum(rhs),rhsMax =  -5.53007380993318E+01  2.56864834569405E+00
(PID.TID 0000.0001)  ploadbar=  1.01077627838356E+05
 cg2d: Sum(rhs),rhsMax =  -5.56687151161073E+01  2.55166639564660E+00
(PID.TID 0000.0001)  ploadbar=  1.01077621812170E+05
 cg2d: Sum(rhs),rhsMax =  -5.61271824337298E+01  2.53079815997011E+00
(PID.TID 0000.0001)  ploadbar=  1.01079009584848E+05
 cg2d: Sum(rhs),rhsMax =  -5.66837410714756E+01  2.50588287383695E+00
(PID.TID 0000.0001)  ploadbar=  1.01080397357527E+05
 cg2d: Sum(rhs),rhsMax =  -5.73617751637519E+01  2.47615469686595E+00
(PID.TID 0000.0001)  ploadbar=  1.01081785130205E+05
 cg2d: Sum(rhs),rhsMax =  -5.81723236032672E+01  2.44150229275456E+00
(PID.TID 0000.0001)  ploadbar=  1.01083172902884E+05
 cg2d: Sum(rhs),rhsMax =  -5.91253862983082E+01  2.40194842176122E+00
(PID.TID 0000.0001)  ploadbar=  1.01084560675563E+05
 cg2d: Sum(rhs),rhsMax =  -6.02270744570894E+01  2.35775379086514E+00
(PID.TID 0000.0001)  ploadbar=  1.01085948448241E+05
 cg2d: Sum(rhs),rhsMax =  -6.14054296651301E+01  2.31228484495395E+00
(PID.TID 0000.0001)  ploadbar=  1.01086925408154E+05
 cg2d: Sum(rhs),rhsMax =  -6.26329583732527E+01  2.26676079476776E+00
(PID.TID 0000.0001)  ploadbar=  1.01087902368067E+05
 cg2d: Sum(rhs),rhsMax =  -6.38974899614072E+01  2.22170124899265E+00
(PID.TID 0000.0001)  ploadbar=  1.01088879327979E+05
 cg2d: Sum(rhs),rhsMax =  -6.51970187150685E+01  2.17720045335359E+00
(PID.TID 0000.0001)  ploadbar=  1.01089856287892E+05
 cg2d: Sum(rhs),rhsMax =  -6.65267042789762E+01  2.13342063726185E+00
(PID.TID 0000.0001)  ploadbar=  1.01090833247805E+05
 cg2d: Sum(rhs),rhsMax =  -6.78764607752125E+01  2.09067758559945E+00
(PID.TID 0000.0001)  ploadbar=  1.01091810207718E+05
 cg2d: Sum(rhs),rhsMax =  -6.92296202636330E+01  2.04952157018351E+00
(PID.TID 0000.0001)  ploadbar=  1.01091670770936E+05
 cg2d: Sum(rhs),rhsMax =  -7.05901034870445E+01  2.00973700522861E+00
(PID.TID 0000.0001)  ploadbar=  1.01091531334153E+05
 cg2d: Sum(rhs),rhsMax =  -7.19484064212515E+01  1.97150618684768E+00
(PID.TID 0000.0001)  ploadbar=  1.01091391897371E+05
 cg2d: Sum(rhs),rhsMax =  -7.33033387594484E+01  1.93475735868947E+00
(PID.TID 0000.0001)  ploadbar=  1.01091252460589E+05
 cg2d: Sum(rhs),rhsMax =  -7.46556285503902E+01  1.89937863822126E+00
(PID.TID 0000.0001)  ploadbar=  1.01091113023807E+05
 cg2d: Sum(rhs),rhsMax =  -7.60079503725226E+01  1.86521894719898E+00
(PID.TID 0000.0001)  ploadbar=  1.01090973587025E+05
 cg2d: Sum(rhs),rhsMax =  -7.75099924215172E+01  1.82881993285600E+00
(PID.TID 0000.0001)  ploadbar=  1.01090315171361E+05
 cg2d: Sum(rhs),rhsMax =  -7.92214160575922E+01  1.78914736747249E+00
(PID.TID 0000.0001)  ploadbar=  1.01089656755698E+05
 cg2d: Sum(rhs),rhsMax =  -8.12026962898163E+01  1.74539074320453E+00
(PID.TID 0000.0001)  ploadbar=  1.01088998340035E+05
 cg2d: Sum(rhs),rhsMax =  -8.35653698138655E+01  1.69598923285294E+00
(PID.TID 0000.0001)  ploadbar=  1.01088339924371E+05
 cg2d: Sum(rhs),rhsMax =  -8.63192150551023E+01  1.64187177855234E+00
(PID.TID 0000.0001)  ploadbar=  1.01087681508708E+05
 cg2d: Sum(rhs),rhsMax =  -8.86837203477753E+01  1.59811731574486E+00
(PID.TID 0000.0001)  ploadbar=  1.01087023093044E+05
 cg2d: Sum(rhs),rhsMax =  -8.64741408055404E+01  1.63898402346710E+00
(PID.TID 0000.0001)  ploadbar=  1.01087268087877E+05
 cg2d: Sum(rhs),rhsMax =  -8.44012733968375E+01  1.67927319129067E+00
(PID.TID 0000.0001)  ploadbar=  1.01087513082710E+05
 cg2d: Sum(rhs),rhsMax =  -8.25684281361631E+01  1.71658716285476E+00
(PID.TID 0000.0001)  ploadbar=  1.01087758077542E+05
 cg2d: Sum(rhs),rhsMax =  -8.09365375261725E+01  1.75123630332335E+00
(PID.TID 0000.0001)  ploadbar=  1.01088003072375E+05
 cg2d: Sum(rhs),rhsMax =  -7.94278939825935E+01  1.78452511040034E+00
(PID.TID 0000.0001)  ploadbar=  1.01088248067208E+05
 cg2d: Sum(rhs),rhsMax =  -7.79952315179373E+01  1.81730822505351E+00
(PID.TID 0000.0001)  ploadbar=  1.01088493062040E+05
 cg2d: Sum(rhs),rhsMax =  -7.67284388652837E+01  1.84734653936649E+00
(PID.TID 0000.0001)  ploadbar=  1.01088111225146E+05
 cg2d: Sum(rhs),rhsMax =  -7.56409856619442E+01  1.87395209882083E+00
(PID.TID 0000.0001)  ploadbar=  1.01087729388251E+05
 cg2d: Sum(rhs),rhsMax =  -7.47420490425396E+01  1.89653594484953E+00
(PID.TID 0000.0001)  ploadbar=  1.01087347551357E+05
 cg2d: Sum(rhs),rhsMax =  -7.40314571885050E+01  1.91476709567368E+00
(PID.TID 0000.0001)  ploadbar=  1.01086965714463E+05
 cg2d: Sum(rhs),rhsMax =  -7.34975936967485E+01  1.92866662064360E+00
(PID.TID 0000.0001)  ploadbar=  1.01086583877568E+05
 cg2d: Sum(rhs),rhsMax =  -7.31266084735643E+01  1.93839614353007E+00
(PID.TID 0000.0001)  ploadbar=  1.01086202040674E+05
 cg2d: Sum(rhs),rhsMax =  -7.28672004035074E+01  1.94525771651492E+00
(PID.TID 0000.0001)  ploadbar=  1.01086535921007E+05
 cg2d: Sum(rhs),rhsMax =  -7.26782536705573E+01  1.95027971955551E+00
(PID.TID 0000.0001)  ploadbar=  1.01086869801341E+05
 cg2d: Sum(rhs),rhsMax =  -7.25331713355764E+01  1.95414265795699E+00
(PID.TID 0000.0001)  ploadbar=  1.01087203681674E+05
 cg2d: Sum(rhs),rhsMax =  -7.24075265092924E+01  1.95748267401707E+00
(PID.TID 0000.0001)  ploadbar=  1.01087537562008E+05
 cg2d: Sum(rhs),rhsMax =  -7.22826131945448E+01  1.96078749108847E+00
(PID.TID 0000.0001)  ploadbar=  1.01087871442341E+05
 cg2d: Sum(rhs),rhsMax =  -7.21506178973878E+01  1.96426244398104E+00
(PID.TID 0000.0001)  ploadbar=  1.01088205322675E+05
 cg2d: Sum(rhs),rhsMax =  -7.19370704234835E+01  1.97005948648889E+00
(PID.TID 0000.0001)  ploadbar=  1.01087725972229E+05
 cg2d: Sum(rhs),rhsMax =  -7.15656074585124E+01  1.98030787391983E+00
(PID.TID 0000.0001)  ploadbar=  1.01087246621782E+05
 cg2d: Sum(rhs),rhsMax =  -7.10338906495930E+01  1.99517867091955E+00
(PID.TID 0000.0001)  ploadbar=  1.01086767271335E+05
 cg2d: Sum(rhs),rhsMax =  -7.04381808895196E+01  2.01210998579435E+00
(PID.TID 0000.0001)  ploadbar=  1.01086287920889E+05
 cg2d: Sum(rhs),rhsMax =  -7.01008712532449E+01  2.02184107150875E+00
(PID.TID 0000.0001)  ploadbar=  1.01085808570443E+05
 cg2d: Sum(rhs),rhsMax =  -7.01259239671963E+01  2.02114705774808E+00
(PID.TID 0000.0001)  ploadbar=  1.01085329219996E+05
 cg2d: Sum(rhs),rhsMax =  -7.02276351850958E+01  2.01823544615673E+00
(PID.TID 0000.0001)  ploadbar=  1.01085317849964E+05
 cg2d: Sum(rhs),rhsMax =  -7.03365192486496E+01  2.01510165302398E+00
(PID.TID 0000.0001)  ploadbar=  1.01085306479932E+05
 cg2d: Sum(rhs),rhsMax =  -7.03953777479898E+01  2.01337621047632E+00
(PID.TID 0000.0001)  ploadbar=  1.01085295109901E+05
 cg2d: Sum(rhs),rhsMax =  -7.03644182984764E+01  2.01418574241502E+00
(PID.TID 0000.0001)  ploadbar=  1.01085283739869E+05
 cg2d: Sum(rhs),rhsMax =  -7.02202744699012E+01  2.01819698546649E+00
(PID.TID 0000.0001)  ploadbar=  1.01085272369837E+05
 cg2d: Sum(rhs),rhsMax =  -6.99492628887231E+01  2.02583170154892E+00
(PID.TID 0000.0001)  ploadbar=  1.01085260999805E+05
 cg2d: Sum(rhs),rhsMax =  -6.95886282013259E+01  2.03616457870441E+00
(PID.TID 0000.0001)  ploadbar=  1.01083852654049E+05
 cg2d: Sum(rhs),rhsMax =  -6.91640205675509E+01  2.04850334116541E+00
(PID.TID 0000.0001)  ploadbar=  1.01082444308292E+05
 cg2d: Sum(rhs),rhsMax =  -6.87206483801205E+01  2.06155247461722E+00
(PID.TID 0000.0001)  ploadbar=  1.01081035962535E+05
 cg2d: Sum(rhs),rhsMax =  -6.82962645805809E+01  2.07417421241001E+00
(PID.TID 0000.0001)  ploadbar=  1.01079627616778E+05
 cg2d: Sum(rhs),rhsMax =  -6.79075651960900E+01  2.08581778330055E+00
(PID.TID 0000.0001)  ploadbar=  1.01078219271022E+05
 cg2d: Sum(rhs),rhsMax =  -6.75646766071282E+01  2.09612079305464E+00
(PID.TID 0000.0001)  ploadbar=  1.01076810925265E+05
 cg2d: Sum(rhs),rhsMax =  -6.72868437916573E+01  2.10451826617218E+00
(PID.TID 0000.0001)  ploadbar=  1.01076020861472E+05
 cg2d: Sum(rhs),rhsMax =  -6.70858045245301E+01  2.11058414703605E+00
(PID.TID 0000.0001)  ploadbar=  1.01075230797678E+05
 cg2d: Sum(rhs),rhsMax =  -6.69547850304475E+01  2.11448439839692E+00
(PID.TID 0000.0001)  ploadbar=  1.01074440733885E+05
 cg2d: Sum(rhs),rhsMax =  -6.68842922290964E+01  2.11648449547013E+00
(PID.TID 0000.0001)  ploadbar=  1.01073650670091E+05
 cg2d: Sum(rhs),rhsMax =  -6.68673777390097E+01  2.11678546694569E+00
(PID.TID 0000.0001)  ploadbar=  1.01072860606298E+05
 cg2d: Sum(rhs),rhsMax =  -6.68979057101271E+01  2.11556764580539E+00
(PID.TID 0000.0001)  ploadbar=  1.01072070542504E+05
 cg2d: Sum(rhs),rhsMax =  -6.69679622823505E+01  2.11319608095305E+00
(PID.TID 0000.0001)  ploadbar=  1.01072644046058E+05
 cg2d: Sum(rhs),rhsMax =  -6.70718187286074E+01  2.10982721491890E+00
(PID.TID 0000.0001)  ploadbar=  1.01073217549613E+05
 cg2d: Sum(rhs),rhsMax =  -6.72073630659135E+01  2.10550541113281E+00
(PID.TID 0000.0001)  ploadbar=  1.01073791053167E+05
 cg2d: Sum(rhs),rhsMax =  -6.73747679688692E+01  2.10022223629843E+00
(PID.TID 0000.0001)  ploadbar=  1.01074364556721E+05
 cg2d: Sum(rhs),rhsMax =  -6.75765677683467E+01  2.09390616139460E+00
(PID.TID 0000.0001)  ploadbar=  1.01074938060275E+05
 cg2d: Sum(rhs),rhsMax =  -6.78122841598175E+01  2.08658843250295E+00
(PID.TID 0000.0001)  ploadbar=  1.01075511563829E+05
 cg2d: Sum(rhs),rhsMax =  -6.80543215279400E+01  2.07913402170622E+00
(PID.TID 0000.0001)  ploadbar=  1.01075732430884E+05
 cg2d: Sum(rhs),rhsMax =  -6.82878130357378E+01  2.07199761459116E+00
(PID.TID 0000.0001)  ploadbar=  1.01075953297939E+05
 cg2d: Sum(rhs),rhsMax =  -6.85020638206899E+01  2.06549693606496E+00
(PID.TID 0000.0001)  ploadbar=  1.01076174164994E+05
 cg2d: Sum(rhs),rhsMax =  -6.86990281742302E+01  2.05955971284944E+00
(PID.TID 0000.0001)  ploadbar=  1.01076395032049E+05
 cg2d: Sum(rhs),rhsMax =  -6.88811603050257E+01  2.05408296056878E+00
(PID.TID 0000.0001)  ploadbar=  1.01076615899104E+05
 cg2d: Sum(rhs),rhsMax =  -6.90445632970060E+01  2.04915806373905E+00
(PID.TID 0000.0001)  ploadbar=  1.01076836766158E+05
 cg2d: Sum(rhs),rhsMax =  -6.92060834017780E+01  2.04432467589726E+00
(PID.TID 0000.0001)  ploadbar=  1.01077295934017E+05
 cg2d: Sum(rhs),rhsMax =  -6.93785835165871E+01  2.03918476328048E+00
(PID.TID 0000.0001)  ploadbar=  1.01077755101876E+05
 cg2d: Sum(rhs),rhsMax =  -6.95868990668620E+01  2.03300639982744E+00
(PID.TID 0000.0001)  ploadbar=  1.01078214269735E+05
 cg2d: Sum(rhs),rhsMax =  -6.98623903740439E+01  2.02488784532266E+00
(PID.TID 0000.0001)  ploadbar=  1.01078673437593E+05
 cg2d: Sum(rhs),rhsMax =  -7.02395007752091E+01  2.01387355774785E+00
(PID.TID 0000.0001)  ploadbar=  1.01079132605452E+05
 cg2d: Sum(rhs),rhsMax =  -7.07351949039707E+01  1.99955874073090E+00
(PID.TID 0000.0001)  ploadbar=  1.01079591773311E+05
 cg2d: Sum(rhs),rhsMax =  -7.14699585004116E+01  1.97883404064863E+00
(PID.TID 0000.0001)  ploadbar=  1.01080115811629E+05
 cg2d: Sum(rhs),rhsMax =  -7.24261637346895E+01  1.95256362670956E+00
(PID.TID 0000.0001)  ploadbar=  1.01080639849948E+05
 cg2d: Sum(rhs),rhsMax =  -7.35761412854662E+01  1.92190681532042E+00
(PID.TID 0000.0001)  ploadbar=  1.01081163888266E+05
 cg2d: Sum(rhs),rhsMax =  -7.48852913734047E+01  1.88816536502721E+00
(PID.TID 0000.0001)  ploadbar=  1.01081687926585E+05
 cg2d: Sum(rhs),rhsMax =  -7.63171643788178E+01  1.85259211510765E+00
(PID.TID 0000.0001)  ploadbar=  1.01082211964903E+05
 cg2d: Sum(rhs),rhsMax =  -7.78363215727589E+01  1.81627822150753E+00
(PID.TID 0000.0001)  ploadbar=  1.01082736003221E+05
 cg2d: Sum(rhs),rhsMax =  -7.94707499848201E+01  1.77884391961501E+00
(PID.TID 0000.0001)  ploadbar=  1.01083171392902E+05
 cg2d: Sum(rhs),rhsMax =  -8.12285166659428E+01  1.74030477469530E+00
(PID.TID 0000.0001)  ploadbar=  1.01083606782583E+05
 cg2d: Sum(rhs),rhsMax =  -8.31502594846396E+01  1.70006072185849E+00
(PID.TID 0000.0001)  ploadbar=  1.01084042172265E+05
 cg2d: Sum(rhs),rhsMax =  -8.52874461847411E+01  1.65745799226675E+00
(PID.TID 0000.0001)  ploadbar=  1.01084477561946E+05
 cg2d: Sum(rhs),rhsMax =  -8.76885929475512E+01  1.61208686229498E+00
(PID.TID 0000.0001)  ploadbar=  1.01084912951627E+05
 cg2d: Sum(rhs),rhsMax =  -9.03935522906857E+01  1.56387434227272E+00
(PID.TID 0000.0001)  ploadbar=  1.01085348341308E+05
 cg2d: Sum(rhs),rhsMax =  -9.32646322767290E+01  1.51577861312171E+00
(PID.TID 0000.0001)  ploadbar=  1.01086110034529E+05
 cg2d: Sum(rhs),rhsMax =  -9.62127884811916E+01  1.46939489758120E+00
(PID.TID 0000.0001)  ploadbar=  1.01086871727751E+05
 cg2d: Sum(rhs),rhsMax =  -9.91341390245059E+01  1.42617505433477E+00
(PID.TID 0000.0001)  ploadbar=  1.01087633420973E+05
 cg2d: Sum(rhs),rhsMax =  -1.01854242269251E+02  1.38817549084027E+00
(PID.TID 0000.0001)  ploadbar=  1.01088395114194E+05
 cg2d: Sum(rhs),rhsMax =  -1.04568640942590E+02  1.35221959910664E+00
(PID.TID 0000.0001)  ploadbar=  1.01089156807416E+05
 cg2d: Sum(rhs),rhsMax =  -1.06840932067104E+02  1.32351853387179E+00
(PID.TID 0000.0001)  ploadbar=  1.01089918500637E+05
 cg2d: Sum(rhs),rhsMax =  -1.08961928196034E+02  1.29781966500914E+00
(PID.TID 0000.0001)  ploadbar=  1.01089747346356E+05
 cg2d: Sum(rhs),rhsMax =  -1.11065428520144E+02  1.27329927229484E+00
(PID.TID 0000.0001)  ploadbar=  1.01089576192075E+05
 cg2d: Sum(rhs),rhsMax =  -1.13298253392533E+02  1.24824891894075E+00
(PID.TID 0000.0001)  ploadbar=  1.01089405037794E+05
 cg2d: Sum(rhs),rhsMax =  -1.15797643169789E+02  1.22132600799561E+00
(PID.TID 0000.0001)  ploadbar=  1.01089233883513E+05
 cg2d: Sum(rhs),rhsMax =  -1.18671280853798E+02  1.19174260245382E+00
(PID.TID 0000.0001)  ploadbar=  1.01089062729232E+05
 cg2d: Sum(rhs),rhsMax =  -1.22022436724265E+02  1.15897768138750E+00
(PID.TID 0000.0001)  ploadbar=  1.01088891574952E+05
 cg2d: Sum(rhs),rhsMax =  -1.23885517033462E+02  1.14152214605398E+00
(PID.TID 0000.0001)  ploadbar=  1.01087897234371E+05
 cg2d: Sum(rhs),rhsMax =  -1.24479425603013E+02  1.13604950833078E+00
(PID.TID 0000.0001)  ploadbar=  1.01086902893790E+05
 cg2d: Sum(rhs),rhsMax =  -1.25205793759024E+02  1.12943066776258E+00
(PID.TID 0000.0001)  ploadbar=  1.01085908553209E+05
 cg2d: Sum(rhs),rhsMax =  -1.25986986407205E+02  1.12238794662363E+00
(PID.TID 0000.0001)  ploadbar=  1.01084914212629E+05
 cg2d: Sum(rhs),rhsMax =  -1.26696328163105E+02  1.11604283313902E+00
(PID.TID 0000.0001)  ploadbar=  1.01083919872048E+05
 cg2d: Sum(rhs),rhsMax =  -1.27117910234579E+02  1.11225387352501E+00
(PID.TID 0000.0001)  ploadbar=  1.01082925531467E+05
 cg2d: Sum(rhs),rhsMax =  -1.27848964362052E+02  1.10584085422257E+00
(PID.TID 0000.0001)  ploadbar=  1.01082320228132E+05
 cg2d: Sum(rhs),rhsMax =  -1.28221044310822E+02  1.10259356411829E+00
(PID.TID 0000.0001)  ploadbar=  1.01081714924797E+05
 cg2d: Sum(rhs),rhsMax =  -1.28640908644966E+02  1.09896703504916E+00
(PID.TID 0000.0001)  ploadbar=  1.01081109621463E+05
 cg2d: Sum(rhs),rhsMax =  -1.29193230163786E+02  1.09425151833613E+00
(PID.TID 0000.0001)  ploadbar=  1.01080504318128E+05
 cg2d: Sum(rhs),rhsMax =  -1.30074485732016E+02  1.08683113223442E+00
(PID.TID 0000.0001)  ploadbar=  1.01079899014793E+05
 cg2d: Sum(rhs),rhsMax =  -1.31536341458540E+02  1.07475567071812E+00
(PID.TID 0000.0001)  ploadbar=  1.01079293711459E+05
 cg2d: Sum(rhs),rhsMax =  -1.32654053695805E+02  1.06571895123771E+00
(PID.TID 0000.0001)  ploadbar=  1.01078429904125E+05
 cg2d: Sum(rhs),rhsMax =  -1.33042284737873E+02  1.06263677108321E+00
(PID.TID 0000.0001)  ploadbar=  1.01077566096792E+05
 cg2d: Sum(rhs),rhsMax =  -1.33089877562055E+02  1.06229097757337E+00
(PID.TID 0000.0001)  ploadbar=  1.01076702289458E+05
 cg2d: Sum(rhs),rhsMax =  -1.31953920159039E+02  1.07147334632282E+00
(PID.TID 0000.0001)  ploadbar=  1.01075838482125E+05
 cg2d: Sum(rhs),rhsMax =  -1.29821844114136E+02  1.08910869209811E+00
(PID.TID 0000.0001)  ploadbar=  1.01074974674791E+05
 cg2d: Sum(rhs),rhsMax =  -1.27340905555942E+02  1.11036309813576E+00
(PID.TID 0000.0001)  ploadbar=  1.01074110867458E+05
 cg2d: Sum(rhs),rhsMax =  -1.24661084176553E+02  1.13425956729208E+00
(PID.TID 0000.0001)  ploadbar=  1.01073057279495E+05
 cg2d: Sum(rhs),rhsMax =  -1.22095698526892E+02  1.15809714136376E+00
(PID.TID 0000.0001)  ploadbar=  1.01072003691532E+05
 cg2d: Sum(rhs),rhsMax =  -1.19617945826491E+02  1.18205850680925E+00
(PID.TID 0000.0001)  ploadbar=  1.01070950103569E+05
 cg2d: Sum(rhs),rhsMax =  -1.19118629619514E+02  1.18694889521374E+00
(PID.TID 0000.0001)  ploadbar=  1.01069896515607E+05
 cg2d: Sum(rhs),rhsMax =  -1.18446132242658E+02  1.19358394545182E+00
(PID.TID 0000.0001)  ploadbar=  1.01068842927644E+05
 cg2d: Sum(rhs),rhsMax =  -1.17699419333870E+02  1.20100797779547E+00
(PID.TID 0000.0001)  ploadbar=  1.01067789339681E+05
 cg2d: Sum(rhs),rhsMax =  -1.17590286213828E+02  1.20196546703388E+00
(PID.TID 0000.0001)  ploadbar=  1.01067341780322E+05
 cg2d: Sum(rhs),rhsMax =  -1.17873551399935E+02  1.19890826214193E+00
(PID.TID 0000.0001)  ploadbar=  1.01066894220962E+05
 cg2d: Sum(rhs),rhsMax =  -1.18236035825971E+02  1.19504598993547E+00
(PID.TID 0000.0001)  ploadbar=  1.01066446661603E+05
 cg2d: Sum(rhs),rhsMax =  -1.16131356561769E+02  1.21649153565424E+00
(PID.TID 0000.0001)  ploadbar=  1.01065999102244E+05
 cg2d: Sum(rhs),rhsMax =  -1.13757576331378E+02  1.24163188362989E+00
(PID.TID 0000.0001)  ploadbar=  1.01065551542885E+05
 cg2d: Sum(rhs),rhsMax =  -1.11756356392319E+02  1.26358730170291E+00
(PID.TID 0000.0001)  ploadbar=  1.01065103983525E+05
 cg2d: Sum(rhs),rhsMax =  -1.09975980024931E+02  1.28380466032610E+00
(PID.TID 0000.0001)  ploadbar=  1.01064135629359E+05
 cg2d: Sum(rhs),rhsMax =  -1.08472479970410E+02  1.30138485183708E+00
(PID.TID 0000.0001)  ploadbar=  1.01063167275193E+05
 cg2d: Sum(rhs),rhsMax =  -1.07150475705065E+02  1.31724753327226E+00
(PID.TID 0000.0001)  ploadbar=  1.01062198921027E+05
 cg2d: Sum(rhs),rhsMax =  -1.05988649845005E+02  1.33150952149355E+00
(PID.TID 0000.0001)  ploadbar=  1.01061230566860E+05
 cg2d: Sum(rhs),rhsMax =  -1.04972559831732E+02  1.34423431034273E+00
(PID.TID 0000.0001)  ploadbar=  1.01060262212694E+05
 cg2d: Sum(rhs),rhsMax =  -1.04098906238348E+02  1.35536989402560E+00
(PID.TID 0000.0001)  ploadbar=  1.01059293858528E+05
 cg2d: Sum(rhs),rhsMax =  -1.03382760643751E+02  1.36463316041672E+00
(PID.TID 0000.0001)  ploadbar=  1.01058827564707E+05
 cg2d: Sum(rhs),rhsMax =  -1.02813947008004E+02  1.37207253109132E+00
(PID.TID 0000.0001)  ploadbar=  1.01058361270887E+05
 cg2d: Sum(rhs),rhsMax =  -1.02360664340781E+02  1.37805129755530E+00
(PID.TID 0000.0001)  ploadbar=  1.01057894977066E+05
 cg2d: Sum(rhs),rhsMax =  -1.01999708847391E+02  1.38283823898956E+00
(PID.TID 0000.0001)  ploadbar=  1.01057428683246E+05
 cg2d: Sum(rhs),rhsMax =  -1.01748491807419E+02  1.38616603822657E+00
(PID.TID 0000.0001)  ploadbar=  1.01056962389425E+05
 cg2d: Sum(rhs),rhsMax =  -1.01624030362780E+02  1.38777817997201E+00
(PID.TID 0000.0001)  ploadbar=  1.01056496095605E+05
 cg2d: Sum(rhs),rhsMax =  -1.01673568352072E+02  1.38703241813238E+00
(PID.TID 0000.0001)  ploadbar=  1.01055692146475E+05
 cg2d: Sum(rhs),rhsMax =  -1.01886187595384E+02  1.38407405583807E+00
(PID.TID 0000.0001)  ploadbar=  1.01054888197346E+05
 cg2d: Sum(rhs),rhsMax =  -1.00647132322813E+02  1.40105014540796E+00
(PID.TID 0000.0001)  ploadbar=  1.01054084248216E+05
 cg2d: Sum(rhs),rhsMax =  -9.86624235080644E+01  1.42917275100092E+00
(PID.TID 0000.0001)  ploadbar=  1.01053280299087E+05
 cg2d: Sum(rhs),rhsMax =  -9.67252751394192E+01  1.45773507580062E+00
(PID.TID 0000.0001)  ploadbar=  1.01052476349957E+05
 cg2d: Sum(rhs),rhsMax =  -9.48248648505259E+01  1.48687890249438E+00
(PID.TID 0000.0001)  ploadbar=  1.01051672400828E+05
 cg2d: Sum(rhs),rhsMax =  -9.29563363490954E+01  1.51668887328278E+00
(PID.TID 0000.0001)  ploadbar=  1.01050797868151E+05
 cg2d: Sum(rhs),rhsMax =  -9.11746305008285E+01  1.54623497256371E+00
(PID.TID 0000.0001)  ploadbar=  1.01049923335473E+05
 cg2d: Sum(rhs),rhsMax =  -8.95189817779891E+01  1.57471835781793E+00
(PID.TID 0000.0001)  ploadbar=  1.01049048802796E+05
 cg2d: Sum(rhs),rhsMax =  -8.77916290762022E+01  1.60556553344228E+00
(PID.TID 0000.0001)  ploadbar=  1.01048174270119E+05
 cg2d: Sum(rhs),rhsMax =  -8.61842547542494E+01  1.63535165897751E+00
(PID.TID 0000.0001)  ploadbar=  1.01047299737441E+05
 cg2d: Sum(rhs),rhsMax =  -8.47068608994014E+01  1.66369160342412E+00
(PID.TID 0000.0001)  ploadbar=  1.01046425204764E+05
 cg2d: Sum(rhs),rhsMax =  -8.33117657688205E+01  1.69143436888530E+00
(PID.TID 0000.0001)  ploadbar=  1.01044666812121E+05
 cg2d: Sum(rhs),rhsMax =  -8.20047217560663E+01  1.71831845521368E+00
(PID.TID 0000.0001)  ploadbar=  1.01042908419478E+05
 cg2d: Sum(rhs),rhsMax =  -8.07659121002139E+01  1.74462814577996E+00
(PID.TID 0000.0001)  ploadbar=  1.01041150026835E+05
 cg2d: Sum(rhs),rhsMax =  -7.95914202383208E+01  1.77034914517441E+00
(PID.TID 0000.0001)  ploadbar=  1.01039391634191E+05
 cg2d: Sum(rhs),rhsMax =  -7.85095376974196E+01  1.79473763594101E+00
(PID.TID 0000.0001)  ploadbar=  1.01037633241548E+05
 cg2d: Sum(rhs),rhsMax =  -7.75634937374086E+01  1.81663641730955E+00
(PID.TID 0000.0001)  ploadbar=  1.01035874848905E+05
 cg2d: Sum(rhs),rhsMax =  -7.67861644610318E+01  1.83505088802805E+00
(PID.TID 0000.0001)  ploadbar=  1.01035761598783E+05
 cg2d: Sum(rhs),rhsMax =  -7.62232874629795E+01  1.84863256211509E+00
(PID.TID 0000.0001)  ploadbar=  1.01035648348661E+05
 cg2d: Sum(rhs),rhsMax =  -7.59212673852107E+01  1.85602221200946E+00
(PID.TID 0000.0001)  ploadbar=  1.01035535098540E+05
 cg2d: Sum(rhs),rhsMax =  -7.42843091099302E+01  1.89695665581730E+00
(PID.TID 0000.0001)  ploadbar=  1.01035421848418E+05
 cg2d: Sum(rhs),rhsMax =  -7.20036803121037E+01  1.95707602003925E+00
(PID.TID 0000.0001)  ploadbar=  1.01035308598296E+05
 cg2d: Sum(rhs),rhsMax =  -7.00660411247550E+01  2.01123233477017E+00
(PID.TID 0000.0001)  ploadbar=  1.01035195348174E+05
 cg2d: Sum(rhs),rhsMax =  -6.84324357415632E+01  2.05930214007357E+00
(PID.TID 0000.0001)  ploadbar=  1.01034248035384E+05
 cg2d: Sum(rhs),rhsMax =  -6.70035887584910E+01  2.10328619197955E+00
(PID.TID 0000.0001)  ploadbar=  1.01033300722593E+05
 cg2d: Sum(rhs),rhsMax =  -6.57698029466018E+01  2.14280866025402E+00
(PID.TID 0000.0001)  ploadbar=  1.01032353409803E+05
 cg2d: Sum(rhs),rhsMax =  -6.46996720112635E+01  2.17829557144972E+00
(PID.TID 0000.0001)  ploadbar=  1.01031406097013E+05
 cg2d: Sum(rhs),rhsMax =  -6.37713566825034E+01  2.21001062729063E+00
(PID.TID 0000.0001)  ploadbar=  1.01030458784222E+05
 cg2d: Sum(rhs),rhsMax =  -6.29625370996871E+01  2.23835020609406E+00
(PID.TID 0000.0001)  ploadbar=  1.01029511471432E+05
 cg2d: Sum(rhs),rhsMax =  -6.22156365835180E+01  2.26514670213663E+00
(PID.TID 0000.0001)  ploadbar=  1.01030461059375E+05
 cg2d: Sum(rhs),rhsMax =  -6.15277220623809E+01  2.29036268298681E+00
(PID.TID 0000.0001)  ploadbar=  1.01031410647319E+05
 cg2d: Sum(rhs),rhsMax =  -6.08831922214081E+01  2.31446267393083E+00
(PID.TID 0000.0001)  ploadbar=  1.01032360235262E+05
 cg2d: Sum(rhs),rhsMax =  -6.02789720155473E+01  2.33747148731516E+00
(PID.TID 0000.0001)  ploadbar=  1.01033309823206E+05
 cg2d: Sum(rhs),rhsMax =  -5.98163070227910E+01  2.35531480756845E+00
(PID.TID 0000.0001)  ploadbar=  1.01034259411149E+05
 cg2d: Sum(rhs),rhsMax =  -5.95542512031262E+01  2.36539460811525E+00
(PID.TID 0000.0001)  ploadbar=  1.01035208999093E+05
 cg2d: Sum(rhs),rhsMax =  -5.94348727865372E+01  2.36994207548512E+00
(PID.TID 0000.0001)  ploadbar=  1.01037263178513E+05
 cg2d: Sum(rhs),rhsMax =  -5.94791820219607E+01  2.36802993414932E+00
(PID.TID 0000.0001)  ploadbar=  1.01039317357933E+05
 cg2d: Sum(rhs),rhsMax =  -5.96655960327562E+01  2.36052401861994E+00
(PID.TID 0000.0001)  ploadbar=  1.01041371537353E+05
 cg2d: Sum(rhs),rhsMax =  -5.99951828651315E+01  2.34747393730250E+00
(PID.TID 0000.0001)  ploadbar=  1.01043425716773E+05
 cg2d: Sum(rhs),rhsMax =  -6.04552707909519E+01  2.32954455947530E+00
(PID.TID 0000.0001)  ploadbar=  1.01045479896193E+05
 cg2d: Sum(rhs),rhsMax =  -6.09722166760838E+01  2.30975212722032E+00
(PID.TID 0000.0001)  ploadbar=  1.01047534075613E+05
 cg2d: Sum(rhs),rhsMax =  -6.14428678574183E+01  2.29203249148862E+00
(PID.TID 0000.0001)  ploadbar=  1.01049022910155E+05
 cg2d: Sum(rhs),rhsMax =  -6.18758050833715E+01  2.27596433833360E+00
(PID.TID 0000.0001)  ploadbar=  1.01050511744697E+05
 cg2d: Sum(rhs),rhsMax =  -6.22700668642805E+01  2.26151759061026E+00
(PID.TID 0000.0001)  ploadbar=  1.01052000579239E+05
 cg2d: Sum(rhs),rhsMax =  -6.26406009382016E+01  2.24810263884913E+00
(PID.TID 0000.0001)  ploadbar=  1.01053489413780E+05
 cg2d: Sum(rhs),rhsMax =  -6.29985630737235E+01  2.23529413379653E+00
(PID.TID 0000.0001)  ploadbar=  1.01054978248322E+05
 cg2d: Sum(rhs),rhsMax =  -6.33372048949234E+01  2.22330677195255E+00
(PID.TID 0000.0001)  ploadbar=  1.01056467082864E+05
 cg2d: Sum(rhs),rhsMax =  -6.35028874859577E+01  2.21753134706624E+00
(PID.TID 0000.0001)  ploadbar=  1.01057784765472E+05
 cg2d: Sum(rhs),rhsMax =  -6.34337497273002E+01  2.22000005600467E+00
(PID.TID 0000.0001)  ploadbar=  1.01059102448081E+05
 cg2d: Sum(rhs),rhsMax =  -6.31018384926433E+01  2.23174180391208E+00
(PID.TID 0000.0001)  ploadbar=  1.01060420130689E+05
 cg2d: Sum(rhs),rhsMax =  -6.25205772303903E+01  2.25256292382712E+00
(PID.TID 0000.0001)  ploadbar=  1.01061737813297E+05
 cg2d: Sum(rhs),rhsMax =  -6.18907268020143E+01  2.27555619101118E+00
(PID.TID 0000.0001)  ploadbar=  1.01063055495906E+05
 cg2d: Sum(rhs),rhsMax =  -6.12305896346519E+01  2.30016476136739E+00
(PID.TID 0000.0001)  ploadbar=  1.01064373178514E+05
 cg2d: Sum(rhs),rhsMax =  -6.05660283313454E+01  2.32548370819694E+00
(PID.TID 0000.0001)  ploadbar=  1.01065924456343E+05
 cg2d: Sum(rhs),rhsMax =  -6.00819363261551E+01  2.34428369301729E+00
(PID.TID 0000.0001)  ploadbar=  1.01067475734172E+05
 cg2d: Sum(rhs),rhsMax =  -5.97769450164116E+01  2.35628018140550E+00
(PID.TID 0000.0001)  ploadbar=  1.01069027012002E+05
 cg2d: Sum(rhs),rhsMax =  -5.96003483938390E+01  2.36326953960763E+00
(PID.TID 0000.0001)  ploadbar=  1.01070578289831E+05
 cg2d: Sum(rhs),rhsMax =  -5.93678695954372E+01  2.37249970943996E+00
(PID.TID 0000.0001)  ploadbar=  1.01072129567661E+05
 cg2d: Sum(rhs),rhsMax =  -5.91952753303823E+01  2.37935149781794E+00
(PID.TID 0000.0001)  ploadbar=  1.01073680845490E+05
 cg2d: Sum(rhs),rhsMax =  -5.90729665889330E+01  2.38432504555342E+00
(PID.TID 0000.0001)  ploadbar=  1.01075478000332E+05
 cg2d: Sum(rhs),rhsMax =  -5.89759736117548E+01  2.38837823576814E+00
(PID.TID 0000.0001)  ploadbar=  1.01077275155173E+05
 cg2d: Sum(rhs),rhsMax =  -5.89211366767153E+01  2.39079908644122E+00
(PID.TID 0000.0001)  ploadbar=  1.01079072310015E+05
 cg2d: Sum(rhs),rhsMax =  -5.89054748785579E+01  2.39168701061583E+00
(PID.TID 0000.0001)  ploadbar=  1.01080869464856E+05
 cg2d: Sum(rhs),rhsMax =  -5.89341916370842E+01  2.39081816632157E+00
(PID.TID 0000.0001)  ploadbar=  1.01082666619698E+05
 cg2d: Sum(rhs),rhsMax =  -5.90215505268331E+01  2.38761006958692E+00
(PID.TID 0000.0001)  ploadbar=  1.01084463774540E+05
 cg2d: Sum(rhs),rhsMax =  -5.91982273633076E+01  2.38079800265935E+00
(PID.TID 0000.0001)  ploadbar=  1.01085328530702E+05
 cg2d: Sum(rhs),rhsMax =  -5.94404270112290E+01  2.37138622894764E+00
(PID.TID 0000.0001)  ploadbar=  1.01086193286865E+05
 cg2d: Sum(rhs),rhsMax =  -5.97501195815918E+01  2.35936443626146E+00
(PID.TID 0000.0001)  ploadbar=  1.01087058043027E+05
 cg2d: Sum(rhs),rhsMax =  -6.01153769081916E+01  2.34527576777505E+00
(PID.TID 0000.0001)  ploadbar=  1.01087922799190E+05
 cg2d: Sum(rhs),rhsMax =  -6.05549180146527E+01  2.32847379205795E+00
(PID.TID 0000.0001)  ploadbar=  1.01088787555352E+05
 cg2d: Sum(rhs),rhsMax =  -6.10586655524671E+01  2.30945847715396E+00
(PID.TID 0000.0001)  ploadbar=  1.01089652311515E+05
 cg2d: Sum(rhs),rhsMax =  -6.16426687514335E+01  2.28782491902954E+00
(PID.TID 0000.0001)  ploadbar=  1.01089881012785E+05
 cg2d: Sum(rhs),rhsMax =  -6.21787010460607E+01  2.26837186376248E+00
(PID.TID 0000.0001)  ploadbar=  1.01090109714055E+05
 cg2d: Sum(rhs),rhsMax =  -6.26354284851542E+01  2.25210605865186E+00
(PID.TID 0000.0001)  ploadbar=  1.01090338415325E+05
 cg2d: Sum(rhs),rhsMax =  -6.29926503052762E+01  2.23960300284737E+00
(PID.TID 0000.0001)  ploadbar=  1.01090567116595E+05
 cg2d: Sum(rhs),rhsMax =  -6.32245278475534E+01  2.23164196419718E+00
(PID.TID 0000.0001)  ploadbar=  1.01090795817865E+05
 cg2d: Sum(rhs),rhsMax =  -6.33368747495361E+01  2.22792021559590E+00
(PID.TID 0000.0001)  ploadbar=  1.01091024519134E+05
 cg2d: Sum(rhs),rhsMax =  -6.33517168576730E+01  2.22760055904320E+00
(PID.TID 0000.0001)  ploadbar=  1.01091407586066E+05
 cg2d: Sum(rhs),rhsMax =  -6.32770604519107E+01  2.23038799013686E+00
(PID.TID 0000.0001)  ploadbar=  1.01091790652997E+05
 cg2d: Sum(rhs),rhsMax =  -6.31029060808827E+01  2.23665597375363E+00
(PID.TID 0000.0001)  ploadbar=  1.01092173719929E+05
 cg2d: Sum(rhs),rhsMax =  -6.29100831430725E+01  2.24357328435483E+00
(PID.TID 0000.0001)  ploadbar=  1.01092556786860E+05
 cg2d: Sum(rhs),rhsMax =  -6.27212465931477E+01  2.25033143217517E+00
(PID.TID 0000.0001)  ploadbar=  1.01092939853791E+05
 cg2d: Sum(rhs),rhsMax =  -6.25610884976934E+01  2.25602951688133E+00
(PID.TID 0000.0001)  ploadbar=  1.01093322920723E+05
 cg2d: Sum(rhs),rhsMax =  -6.23659098739705E+01  2.26311188927841E+00
(PID.TID 0000.0001)  ploadbar=  1.01093234217025E+05
 cg2d: Sum(rhs),rhsMax =  -6.21902102012785E+01  2.26958643739449E+00
(PID.TID 0000.0001)  ploadbar=  1.01093145513328E+05
 cg2d: Sum(rhs),rhsMax =  -6.20337293578484E+01  2.27543271707743E+00
(PID.TID 0000.0001)  ploadbar=  1.01093056809630E+05
 cg2d: Sum(rhs),rhsMax =  -6.18712829898646E+01  2.28155449192603E+00
(PID.TID 0000.0001)  ploadbar=  1.01092968105933E+05
 cg2d: Sum(rhs),rhsMax =  -6.16979185465902E+01  2.28813010596389E+00
(PID.TID 0000.0001)  ploadbar=  1.01092879402235E+05
 cg2d: Sum(rhs),rhsMax =  -6.14936757594635E+01  2.29591237821376E+00
(PID.TID 0000.0001)  ploadbar=  1.01092790698537E+05
 cg2d: Sum(rhs),rhsMax =  -6.12931564636860E+01  2.30356151473522E+00
(PID.TID 0000.0001)  ploadbar=  1.01092998235478E+05
 cg2d: Sum(rhs),rhsMax =  -6.10888418563912E+01  2.31135327455766E+00
(PID.TID 0000.0001)  ploadbar=  1.01093205772418E+05
 cg2d: Sum(rhs),rhsMax =  -6.08587699212109E+01  2.32013068141045E+00
(PID.TID 0000.0001)  ploadbar=  1.01093413309358E+05
 cg2d: Sum(rhs),rhsMax =  -6.06120755611503E+01  2.32955633670695E+00
(PID.TID 0000.0001)  ploadbar=  1.01093620846299E+05
 cg2d: Sum(rhs),rhsMax =  -6.03718947914195E+01  2.33874046145317E+00
(PID.TID 0000.0001)  ploadbar=  1.01093828383239E+05
 cg2d: Sum(rhs),rhsMax =  -6.01600526122511E+01  2.34681815596508E+00
(PID.TID 0000.0001)  ploadbar=  1.01094035920180E+05
 cg2d: Sum(rhs),rhsMax =  -5.99247756752809E+01  2.35586376542532E+00
(PID.TID 0000.0001)  ploadbar=  1.01094666386219E+05
 cg2d: Sum(rhs),rhsMax =  -5.97485755569965E+01  2.36260938384049E+00
(PID.TID 0000.0001)  ploadbar=  1.01095296852258E+05
 cg2d: Sum(rhs),rhsMax =  -5.96444375993733E+01  2.36648641600126E+00
(PID.TID 0000.0001)  ploadbar=  1.01095927318296E+05
 cg2d: Sum(rhs),rhsMax =  -5.96034127283839E+01  2.36781468348979E+00
(PID.TID 0000.0001)  ploadbar=  1.01096557784335E+05
 cg2d: Sum(rhs),rhsMax =  -5.96344018689214E+01  2.36623039805677E+00
(PID.TID 0000.0001)  ploadbar=  1.01097188250374E+05
 cg2d: Sum(rhs),rhsMax =  -5.97318087499950E+01  2.36195497790484E+00
(PID.TID 0000.0001)  ploadbar=  1.01097818716413E+05
 cg2d: Sum(rhs),rhsMax =  -5.98773410318922E+01  2.35579577781394E+00
(PID.TID 0000.0001)  ploadbar=  1.01097639274686E+05
 cg2d: Sum(rhs),rhsMax =  -6.00569117055303E+01  2.34831848490652E+00
(PID.TID 0000.0001)  ploadbar=  1.01097459832959E+05
 cg2d: Sum(rhs),rhsMax =  -6.02945740816721E+01  2.33860556667817E+00
(PID.TID 0000.0001)  ploadbar=  1.01097280391232E+05
 cg2d: Sum(rhs),rhsMax =  -6.05886819588988E+01  2.32676575286261E+00
(PID.TID 0000.0001)  ploadbar=  1.01097100949505E+05
 cg2d: Sum(rhs),rhsMax =  -6.09391625782549E+01  2.31286070634103E+00
(PID.TID 0000.0001)  ploadbar=  1.01096921507778E+05
 cg2d: Sum(rhs),rhsMax =  -6.13437307379766E+01  2.29704771993235E+00
(PID.TID 0000.0001)  ploadbar=  1.01096742066051E+05
 cg2d: Sum(rhs),rhsMax =  -6.18201961919490E+01  2.27888806871144E+00
(PID.TID 0000.0001)  ploadbar=  1.01096834011377E+05
 cg2d: Sum(rhs),rhsMax =  -6.23389867514171E+01  2.25952522206928E+00
(PID.TID 0000.0001)  ploadbar=  1.01096925956702E+05
 cg2d: Sum(rhs),rhsMax =  -6.29136961656830E+01  2.23853221028450E+00
(PID.TID 0000.0001)  ploadbar=  1.01097017902028E+05
 cg2d: Sum(rhs),rhsMax =  -6.35413539597990E+01  2.21610432234619E+00
(PID.TID 0000.0001)  ploadbar=  1.01097109847353E+05
 cg2d: Sum(rhs),rhsMax =  -6.42124893126376E+01  2.19266060965496E+00
(PID.TID 0000.0001)  ploadbar=  1.01097201792679E+05
 cg2d: Sum(rhs),rhsMax =  -6.49255011849906E+01  2.16833730140323E+00
(PID.TID 0000.0001)  ploadbar=  1.01097293738004E+05
 cg2d: Sum(rhs),rhsMax =  -6.56898655807642E+01  2.14288316383357E+00
(PID.TID 0000.0001)  ploadbar=  1.01096573663068E+05
 cg2d: Sum(rhs),rhsMax =  -6.64887893561849E+01  2.11691380918659E+00
(PID.TID 0000.0001)  ploadbar=  1.01095853588132E+05
 cg2d: Sum(rhs),rhsMax =  -6.73189801483853E+01  2.09059418577602E+00
(PID.TID 0000.0001)  ploadbar=  1.01095133513196E+05
 cg2d: Sum(rhs),rhsMax =  -6.81978466818130E+01  2.06343995961624E+00
(PID.TID 0000.0001)  ploadbar=  1.01094413438260E+05
 cg2d: Sum(rhs),rhsMax =  -6.91325273795549E+01  2.03532133932494E+00
(PID.TID 0000.0001)  ploadbar=  1.01093693363324E+05
 cg2d: Sum(rhs),rhsMax =  -7.01330719572420E+01  2.00605078383665E+00
(PID.TID 0000.0001)  ploadbar=  1.01092973288388E+05
 cg2d: Sum(rhs),rhsMax =  -7.12355336752360E+01  1.97477800769553E+00
(PID.TID 0000.0001)  ploadbar=  1.01091358429383E+05
 cg2d: Sum(rhs),rhsMax =  -7.23923294804979E+01  1.94298735245112E+00
(PID.TID 0000.0001)  ploadbar=  1.01089743570377E+05
 cg2d: Sum(rhs),rhsMax =  -7.35812254700423E+01  1.91134946561568E+00
(PID.TID 0000.0001)  ploadbar=  1.01088128711372E+05
 cg2d: Sum(rhs),rhsMax =  -7.47750647532952E+01  1.88057715418982E+00
(PID.TID 0000.0001)  ploadbar=  1.01086513852367E+05
 cg2d: Sum(rhs),rhsMax =  -7.59450470291040E+01  1.85132834704115E+00
(PID.TID 0000.0001)  ploadbar=  1.01084898993362E+05
 cg2d: Sum(rhs),rhsMax =  -7.70639811365713E+01  1.82413462737377E+00
(PID.TID 0000.0001)  ploadbar=  1.01083284134357E+05
 cg2d: Sum(rhs),rhsMax =  -7.80881967685469E+01  1.79990432154646E+00
(PID.TID 0000.0001)  ploadbar=  1.01081496680890E+05
 cg2d: Sum(rhs),rhsMax =  -7.89764966765084E+01  1.77935663699540E+00
(PID.TID 0000.0001)  ploadbar=  1.01079709227424E+05
 cg2d: Sum(rhs),rhsMax =  -7.97430470814367E+01  1.76194121636010E+00
(PID.TID 0000.0001)  ploadbar=  1.01077921773958E+05
 cg2d: Sum(rhs),rhsMax =  -8.03816584782633E+01  1.74761583706509E+00
(PID.TID 0000.0001)  ploadbar=  1.01076134320492E+05
 cg2d: Sum(rhs),rhsMax =  -8.04220024732280E+01  1.74638371062192E+00
(PID.TID 0000.0001)  ploadbar=  1.01074346867026E+05
 cg2d: Sum(rhs),rhsMax =  -7.97736073242474E+01  1.76018556431778E+00
(PID.TID 0000.0001)  ploadbar=  1.01072559413560E+05
 cg2d: Sum(rhs),rhsMax =  -7.92894014554431E+01  1.77060704251661E+00
(PID.TID 0000.0001)  ploadbar=  1.01069915658318E+05
 cg2d: Sum(rhs),rhsMax =  -7.90008393893306E+01  1.77678982892776E+00
(PID.TID 0000.0001)  ploadbar=  1.01067271903075E+05
 cg2d: Sum(rhs),rhsMax =  -7.89096875225636E+01  1.77859322320899E+00
(PID.TID 0000.0001)  ploadbar=  1.01064628147833E+05
 cg2d: Sum(rhs),rhsMax =  -7.89832178838037E+01  1.77671892522615E+00
(PID.TID 0000.0001)  ploadbar=  1.01061984392591E+05
 cg2d: Sum(rhs),rhsMax =  -7.91820033900650E+01  1.77206685637863E+00
(PID.TID 0000.0001)  ploadbar=  1.01059340637349E+05
 cg2d: Sum(rhs),rhsMax =  -7.96335604250455E+01  1.76185876245115E+00
(PID.TID 0000.0001)  ploadbar=  1.01056696882106E+05
 cg2d: Sum(rhs),rhsMax =  -8.01780222477824E+01  1.74978152195241E+00
(PID.TID 0000.0001)  ploadbar=  1.01055037477589E+05
 cg2d: Sum(rhs),rhsMax =  -8.08362706074260E+01  1.73544247799759E+00
(PID.TID 0000.0001)  ploadbar=  1.01053378073072E+05
 cg2d: Sum(rhs),rhsMax =  -8.16064665320861E+01  1.71899078758689E+00
(PID.TID 0000.0001)  ploadbar=  1.01051718668554E+05
 cg2d: Sum(rhs),rhsMax =  -8.25217459624897E+01  1.69986283575155E+00
(PID.TID 0000.0001)  ploadbar=  1.01050059264037E+05
 cg2d: Sum(rhs),rhsMax =  -8.35539266798655E+01  1.67880744563358E+00
(PID.TID 0000.0001)  ploadbar=  1.01048399859520E+05
 cg2d: Sum(rhs),rhsMax =  -8.46957690540713E+01  1.65611968594640E+00
(PID.TID 0000.0001)  ploadbar=  1.01046740455003E+05
 cg2d: Sum(rhs),rhsMax =  -8.58978674175314E+01  1.63291416857564E+00
(PID.TID 0000.0001)  ploadbar=  1.01044243121800E+05
 cg2d: Sum(rhs),rhsMax =  -8.70796162652395E+01  1.61073523174962E+00
(PID.TID 0000.0001)  ploadbar=  1.01041745788598E+05
 cg2d: Sum(rhs),rhsMax =  -8.81973169080080E+01  1.59030161595294E+00
(PID.TID 0000.0001)  ploadbar=  1.01039248455395E+05
 cg2d: Sum(rhs),rhsMax =  -8.92339564305822E+01  1.57179642984770E+00
(PID.TID 0000.0001)  ploadbar=  1.01036751122193E+05
 cg2d: Sum(rhs),rhsMax =  -9.01935308004942E+01  1.55502785244620E+00
(PID.TID 0000.0001)  ploadbar=  1.01034253788990E+05
 cg2d: Sum(rhs),rhsMax =  -9.10899932598174E+01  1.53965606442414E+00
(PID.TID 0000.0001)  ploadbar=  1.01031756455788E+05
 cg2d: Sum(rhs),rhsMax =  -9.20027320429317E+01  1.52430065166670E+00
(PID.TID 0000.0001)  ploadbar=  1.01029637118681E+05
 cg2d: Sum(rhs),rhsMax =  -9.29419161818872E+01  1.50879771686005E+00
(PID.TID 0000.0001)  ploadbar=  1.01027517781575E+05
 cg2d: Sum(rhs),rhsMax =  -9.39163938797797E+01  1.49301810741921E+00
(PID.TID 0000.0001)  ploadbar=  1.01025398444468E+05
 cg2d: Sum(rhs),rhsMax =  -9.49293377572592E+01  1.47693404125857E+00
(PID.TID 0000.0001)  ploadbar=  1.01023279107362E+05
 cg2d: Sum(rhs),rhsMax =  -9.60742856687997E+01  1.45914953593436E+00
(PID.TID 0000.0001)  ploadbar=  1.01021159770255E+05
 cg2d: Sum(rhs),rhsMax =  -9.73152560531550E+01  1.44032876605979E+00
(PID.TID 0000.0001)  ploadbar=  1.01019040433148E+05
 cg2d: Sum(rhs),rhsMax =  -9.72445068027567E+01  1.44121440151561E+00
(PID.TID 0000.0001)  ploadbar=  1.01018256923231E+05
 cg2d: Sum(rhs),rhsMax =  -9.71727391019015E+01  1.44214306824679E+00
(PID.TID 0000.0001)  ploadbar=  1.01017473413314E+05
 cg2d: Sum(rhs),rhsMax =  -9.72329573678229E+01  1.44112523881354E+00
(PID.TID 0000.0001)  ploadbar=  1.01016689903397E+05
 cg2d: Sum(rhs),rhsMax =  -9.73858163523449E+01  1.43874744271674E+00
(PID.TID 0000.0001)  ploadbar=  1.01015906393480E+05
 cg2d: Sum(rhs),rhsMax =  -9.76262216503218E+01  1.43509841647050E+00
(PID.TID 0000.0001)  ploadbar=  1.01015122883563E+05
 cg2d: Sum(rhs),rhsMax =  -9.79819631210750E+01  1.42979223756946E+00
(PID.TID 0000.0001)  ploadbar=  1.01014339373646E+05
 cg2d: Sum(rhs),rhsMax =  -9.83369236745250E+01  1.42455171284683E+00
(PID.TID 0000.0001)  ploadbar=  1.01013563305015E+05
 cg2d: Sum(rhs),rhsMax =  -9.87554000066874E+01  1.41844832768879E+00
(PID.TID 0000.0001)  ploadbar=  1.01012787236384E+05
 cg2d: Sum(rhs),rhsMax =  -9.92306331106823E+01  1.41160112545046E+00
(PID.TID 0000.0001)  ploadbar=  1.01012011167753E+05
 cg2d: Sum(rhs),rhsMax =  -9.97698088539632E+01  1.40392775553729E+00
(PID.TID 0000.0001)  ploadbar=  1.01011235099122E+05
 cg2d: Sum(rhs),rhsMax =  -1.00383392733843E+02  1.39530375930962E+00
(PID.TID 0000.0001)  ploadbar=  1.01010459030490E+05
 cg2d: Sum(rhs),rhsMax =  -1.01069112994817E+02  1.38578892338074E+00
(PID.TID 0000.0001)  ploadbar=  1.01009682961859E+05
 cg2d: Sum(rhs),rhsMax =  -1.01906394308999E+02  1.37437157148078E+00
(PID.TID 0000.0001)  ploadbar=  1.01009900955962E+05
 cg2d: Sum(rhs),rhsMax =  -1.02891456668389E+02  1.36118533141033E+00
(PID.TID 0000.0001)  ploadbar=  1.01010118950065E+05
 cg2d: Sum(rhs),rhsMax =  -1.03930858549276E+02  1.34754410577110E+00
(PID.TID 0000.0001)  ploadbar=  1.01010336944168E+05
 cg2d: Sum(rhs),rhsMax =  -1.04952518945526E+02  1.33439485146170E+00
(PID.TID 0000.0001)  ploadbar=  1.01010554938271E+05
 cg2d: Sum(rhs),rhsMax =  -1.05958585675501E+02  1.32168269727624E+00
(PID.TID 0000.0001)  ploadbar=  1.01010772932374E+05
 cg2d: Sum(rhs),rhsMax =  -1.06941127564466E+02  1.30948295070693E+00
(PID.TID 0000.0001)  ploadbar=  1.01010990926477E+05
 cg2d: Sum(rhs),rhsMax =  -1.07725590113044E+02  1.29990759178538E+00
(PID.TID 0000.0001)  ploadbar=  1.01010086997080E+05
 cg2d: Sum(rhs),rhsMax =  -1.08295515696174E+02  1.29303439578886E+00
(PID.TID 0000.0001)  ploadbar=  1.01009183067684E+05
 cg2d: Sum(rhs),rhsMax =  -1.08733585114057E+02  1.28779602420994E+00
(PID.TID 0000.0001)  ploadbar=  1.01008279138287E+05
 cg2d: Sum(rhs),rhsMax =  -1.09121957197376E+02  1.28318492267395E+00
(PID.TID 0000.0001)  ploadbar=  1.01007375208891E+05
 cg2d: Sum(rhs),rhsMax =  -1.09510618950844E+02  1.27860263890703E+00
(PID.TID 0000.0001)  ploadbar=  1.01006471279494E+05
 cg2d: Sum(rhs),rhsMax =  -1.09920654500088E+02  1.27380146343156E+00
(PID.TID 0000.0001)  ploadbar=  1.01005567350098E+05
 cg2d: Sum(rhs),rhsMax =  -1.10479152599313E+02  1.26737312927132E+00
(PID.TID 0000.0001)  ploadbar=  1.01004998860418E+05
 cg2d: Sum(rhs),rhsMax =  -1.11227963645101E+02  1.25887168026368E+00
(PID.TID 0000.0001)  ploadbar=  1.01004430370738E+05
 cg2d: Sum(rhs),rhsMax =  -1.12190321001928E+02  1.24811789343344E+00
(PID.TID 0000.0001)  ploadbar=  1.01003861881058E+05
 cg2d: Sum(rhs),rhsMax =  -1.13307386901030E+02  1.23586818294783E+00
(PID.TID 0000.0001)  ploadbar=  1.01003293391378E+05
 cg2d: Sum(rhs),rhsMax =  -1.12400274459867E+02  1.24591098029772E+00
(PID.TID 0000.0001)  ploadbar=  1.01002724901698E+05
 cg2d: Sum(rhs),rhsMax =  -1.10419727717121E+02  1.26835174111666E+00
(PID.TID 0000.0001)  ploadbar=  1.01002156412018E+05
 cg2d: Sum(rhs),rhsMax =  -1.08171782552422E+02  1.29481453737356E+00
(PID.TID 0000.0001)  ploadbar=  1.01001961978017E+05
 cg2d: Sum(rhs),rhsMax =  -1.05885872425212E+02  1.32287554096486E+00
(PID.TID 0000.0001)  ploadbar=  1.01001767544015E+05
 cg2d: Sum(rhs),rhsMax =  -1.04095914025150E+02  1.34573264591026E+00
(PID.TID 0000.0001)  ploadbar=  1.01001573110014E+05
 cg2d: Sum(rhs),rhsMax =  -1.02676819938294E+02  1.36444016129764E+00
(PID.TID 0000.0001)  ploadbar=  1.01001378676013E+05
 cg2d: Sum(rhs),rhsMax =  -1.01624886592103E+02  1.37866150485697E+00
(PID.TID 0000.0001)  ploadbar=  1.01001184242011E+05
 cg2d: Sum(rhs),rhsMax =  -1.00849941751364E+02  1.38933403752795E+00
(PID.TID 0000.0001)  ploadbar=  1.01000989808010E+05
 cg2d: Sum(rhs),rhsMax =  -1.00258821799830E+02  1.39761707996760E+00
(PID.TID 0000.0001)  ploadbar=  1.01002179554155E+05
 cg2d: Sum(rhs),rhsMax =  -9.97684054320201E+01  1.40458419847730E+00
(PID.TID 0000.0001)  ploadbar=  1.01003369300300E+05
 cg2d: Sum(rhs),rhsMax =  -9.93475749064233E+01  1.41063883868116E+00
(PID.TID 0000.0001)  ploadbar=  1.01004559046446E+05
 cg2d: Sum(rhs),rhsMax =  -9.89625870022418E+01  1.41624643521512E+00
(PID.TID 0000.0001)  ploadbar=  1.01005748792591E+05
 cg2d: Sum(rhs),rhsMax =  -9.86022864363064E+01  1.42155991004044E+00
(PID.TID 0000.0001)  ploadbar=  1.01006938538736E+05
 cg2d: Sum(rhs),rhsMax =  -9.82744390605805E+01  1.42645007977056E+00
(PID.TID 0000.0001)  ploadbar=  1.01008128284881E+05
 cg2d: Sum(rhs),rhsMax =  -9.78814768725436E+01  1.43230958549925E+00
(PID.TID 0000.0001)  ploadbar=  1.01008532541168E+05
 cg2d: Sum(rhs),rhsMax =  -9.75136620518486E+01  1.43781223073997E+00
(PID.TID 0000.0001)  ploadbar=  1.01008936797454E+05
 cg2d: Sum(rhs),rhsMax =  -9.71901319537515E+01  1.44265966290499E+00
(PID.TID 0000.0001)  ploadbar=  1.01009341053741E+05
 cg2d: Sum(rhs),rhsMax =  -9.68862596559726E+01  1.44720020979440E+00
(PID.TID 0000.0001)  ploadbar=  1.01009745310027E+05
 cg2d: Sum(rhs),rhsMax =  -9.65899542249596E+01  1.45160786103483E+00
(PID.TID 0000.0001)  ploadbar=  1.01010149566314E+05
 cg2d: Sum(rhs),rhsMax =  -9.63017605850930E+01  1.45586838774756E+00
(PID.TID 0000.0001)  ploadbar=  1.01010553822600E+05
 cg2d: Sum(rhs),rhsMax =  -9.59758472981232E+01  1.46075842128131E+00
(PID.TID 0000.0001)  ploadbar=  1.01011167914075E+05
 cg2d: Sum(rhs),rhsMax =  -9.55926489452093E+01  1.46657165481010E+00
(PID.TID 0000.0001)  ploadbar=  1.01011782005549E+05
 cg2d: Sum(rhs),rhsMax =  -9.52273592608160E+01  1.47215776281446E+00
(PID.TID 0000.0001)  ploadbar=  1.01012396097024E+05
 cg2d: Sum(rhs),rhsMax =  -9.48948810260558E+01  1.47727694101077E+00
(PID.TID 0000.0001)  ploadbar=  1.01013010188498E+05
 cg2d: Sum(rhs),rhsMax =  -9.45805483599990E+01  1.48215182758871E+00
(PID.TID 0000.0001)  ploadbar=  1.01013624279972E+05
 cg2d: Sum(rhs),rhsMax =  -9.43090777784420E+01  1.48639439204833E+00
(PID.TID 0000.0001)  ploadbar=  1.01014238371447E+05
 cg2d: Sum(rhs),rhsMax =  -9.40760502093853E+01  1.49006335906399E+00
(PID.TID 0000.0001)  ploadbar=  1.01015712500994E+05
 cg2d: Sum(rhs),rhsMax =  -9.39048741874079E+01  1.49277193617260E+00
(PID.TID 0000.0001)  ploadbar=  1.01017186630542E+05
 cg2d: Sum(rhs),rhsMax =  -9.37850816018913E+01  1.49467791092870E+00
(PID.TID 0000.0001)  ploadbar=  1.01018660760089E+05
 cg2d: Sum(rhs),rhsMax =  -9.37081422192934E+01  1.49591145166195E+00
(PID.TID 0000.0001)  ploadbar=  1.01020134889637E+05
 cg2d: Sum(rhs),rhsMax =  -9.36800347508977E+01  1.49636782533077E+00
(PID.TID 0000.0001)  ploadbar=  1.01021609019184E+05
 cg2d: Sum(rhs),rhsMax =  -9.37292313274161E+01  1.49558299202604E+00
(PID.TID 0000.0001)  ploadbar=  1.01023083148732E+05
 cg2d: Sum(rhs),rhsMax =  -9.37862996416039E+01  1.49467588230883E+00
(PID.TID 0000.0001)  ploadbar=  1.01024949051396E+05
 cg2d: Sum(rhs),rhsMax =  -9.37980778838025E+01  1.49448320327296E+00
(PID.TID 0000.0001)  ploadbar=  1.01026814954059E+05
 cg2d: Sum(rhs),rhsMax =  -9.37834977514679E+01  1.49470160220915E+00
(PID.TID 0000.0001)  ploadbar=  1.01028680856723E+05
 cg2d: Sum(rhs),rhsMax =  -9.37947723915225E+01  1.49450103073713E+00
(PID.TID 0000.0001)  ploadbar=  1.01030546759387E+05
 cg2d: Sum(rhs),rhsMax =  -9.38671800205152E+01  1.49331665127011E+00
(PID.TID 0000.0001)  ploadbar=  1.01032412662051E+05
 cg2d: Sum(rhs),rhsMax =  -9.40689649206342E+01  1.49006608413203E+00
(PID.TID 0000.0001)  ploadbar=  1.01034278564714E+05
 cg2d: Sum(rhs),rhsMax =  -9.43804465024852E+01  1.48507798044310E+00
(PID.TID 0000.0001)  ploadbar=  1.01034960584166E+05
 cg2d: Sum(rhs),rhsMax =  -9.47989209982828E+01  1.47840995974547E+00
(PID.TID 0000.0001)  ploadbar=  1.01035642603617E+05
 cg2d: Sum(rhs),rhsMax =  -9.53040991661570E+01  1.47041416618981E+00
(PID.TID 0000.0001)  ploadbar=  1.01036324623069E+05
 cg2d: Sum(rhs),rhsMax =  -9.58460160775490E+01  1.46189132820738E+00
(PID.TID 0000.0001)  ploadbar=  1.01037006642520E+05
 cg2d: Sum(rhs),rhsMax =  -9.63798749419407E+01  1.45353368025525E+00
(PID.TID 0000.0001)  ploadbar=  1.01037688661972E+05
 cg2d: Sum(rhs),rhsMax =  -9.68644754578262E+01  1.44595203154197E+00
(PID.TID 0000.0001)  ploadbar=  1.01038370681424E+05
 cg2d: Sum(rhs),rhsMax =  -9.74368629516748E+01  1.43721176511261E+00
(PID.TID 0000.0001)  ploadbar=  1.01037815520526E+05
 cg2d: Sum(rhs),rhsMax =  -9.81395653609602E+01  1.42672161099694E+00
(PID.TID 0000.0001)  ploadbar=  1.01037260359628E+05
 cg2d: Sum(rhs),rhsMax =  -9.90198421640535E+01  1.41387603538080E+00
(PID.TID 0000.0001)  ploadbar=  1.01036705198729E+05
 cg2d: Sum(rhs),rhsMax =  -1.00107292811708E+02  1.39839323364650E+00
(PID.TID 0000.0001)  ploadbar=  1.01036150037831E+05
 cg2d: Sum(rhs),rhsMax =  -1.01412840748854E+02  1.38030932236352E+00
(PID.TID 0000.0001)  ploadbar=  1.01035594876933E+05
 cg2d: Sum(rhs),rhsMax =  -1.02984104484886E+02  1.35922252138642E+00
(PID.TID 0000.0001)  ploadbar=  1.01035039716035E+05
 cg2d: Sum(rhs),rhsMax =  -1.04763096072244E+02  1.33614043606249E+00
(PID.TID 0000.0001)  ploadbar=  1.01035274606822E+05
 cg2d: Sum(rhs),rhsMax =  -1.06676209221248E+02  1.31218764638445E+00
(PID.TID 0000.0001)  ploadbar=  1.01035509497610E+05
 cg2d: Sum(rhs),rhsMax =  -1.08704235164681E+02  1.28772639208664E+00
(PID.TID 0000.0001)  ploadbar=  1.01035744388397E+05
 cg2d: Sum(rhs),rhsMax =  -1.10818864279789E+02  1.26317986808996E+00
(PID.TID 0000.0001)  ploadbar=  1.01035979279184E+05
 cg2d: Sum(rhs),rhsMax =  -1.12816792706721E+02  1.24083772076104E+00
(PID.TID 0000.0001)  ploadbar=  1.01036214169971E+05
 cg2d: Sum(rhs),rhsMax =  -1.13657743188016E+02  1.23168797679736E+00
(PID.TID 0000.0001)  ploadbar=  1.01036449060759E+05
 cg2d: Sum(rhs),rhsMax =  -1.13600158382909E+02  1.23236638011219E+00
(PID.TID 0000.0001)  ploadbar=  1.01034725440858E+05
 cg2d: Sum(rhs),rhsMax =  -1.13547161423592E+02  1.23300733582650E+00
(PID.TID 0000.0001)  ploadbar=  1.01033001820957E+05
 cg2d: Sum(rhs),rhsMax =  -1.13527278314809E+02  1.23329803262338E+00
(PID.TID 0000.0001)  ploadbar=  1.01031278201056E+05
 cg2d: Sum(rhs),rhsMax =  -1.13553949265565E+02  1.23308982627445E+00
(PID.TID 0000.0001)  ploadbar=  1.01029554581155E+05
 cg2d: Sum(rhs),rhsMax =  -1.13635539173345E+02  1.23229147357963E+00
(PID.TID 0000.0001)  ploadbar=  1.01027830961254E+05
 cg2d: Sum(rhs),rhsMax =  -1.13770443304929E+02  1.23091151304290E+00
(PID.TID 0000.0001)  ploadbar=  1.01026107341354E+05
 cg2d: Sum(rhs),rhsMax =  -1.13394871231421E+02  1.23505602401843E+00
(PID.TID 0000.0001)  ploadbar=  1.01024373580336E+05
 cg2d: Sum(rhs),rhsMax =  -1.12415814067072E+02  1.24585920969073E+00
(PID.TID 0000.0001)  ploadbar=  1.01022639819319E+05
 cg2d: Sum(rhs),rhsMax =  -1.11473034336920E+02  1.25642155422240E+00
(PID.TID 0000.0001)  ploadbar=  1.01020906058302E+05
 cg2d: Sum(rhs),rhsMax =  -1.10571639880979E+02  1.26666883993628E+00
(PID.TID 0000.0001)  ploadbar=  1.01019172297285E+05
 cg2d: Sum(rhs),rhsMax =  -1.09712976500675E+02  1.27656388898424E+00
(PID.TID 0000.0001)  ploadbar=  1.01017438536267E+05
 cg2d: Sum(rhs),rhsMax =  -1.08894038846662E+02  1.28612065641881E+00
(PID.TID 0000.0001)  ploadbar=  1.01015704775250E+05
 cg2d: Sum(rhs),rhsMax =  -1.08053522120655E+02  1.29613453595458E+00
(PID.TID 0000.0001)  ploadbar=  1.01013556491227E+05
 cg2d: Sum(rhs),rhsMax =  -1.07261513055324E+02  1.30574295231242E+00
(PID.TID 0000.0001)  ploadbar=  1.01011408207204E+05
 cg2d: Sum(rhs),rhsMax =  -1.06462940375486E+02  1.31559770471900E+00
(PID.TID 0000.0001)  ploadbar=  1.01009259923181E+05
 cg2d: Sum(rhs),rhsMax =  -1.05689688789849E+02  1.32530646687709E+00
(PID.TID 0000.0001)  ploadbar=  1.01007111639157E+05
 cg2d: Sum(rhs),rhsMax =  -1.04962554070034E+02  1.33459895187499E+00
(PID.TID 0000.0001)  ploadbar=  1.01004963355134E+05
 cg2d: Sum(rhs),rhsMax =  -1.04293910303851E+02  1.34330256362963E+00
(PID.TID 0000.0001)  ploadbar=  1.01002815071111E+05
 cg2d: Sum(rhs),rhsMax =  -1.03710248120510E+02  1.35100627458282E+00
(PID.TID 0000.0001)  ploadbar=  1.01002100758710E+05
 cg2d: Sum(rhs),rhsMax =  -1.03187642892133E+02  1.35797320932184E+00
(PID.TID 0000.0001)  ploadbar=  1.01001386446310E+05
 cg2d: Sum(rhs),rhsMax =  -1.02736764644404E+02  1.36403274853693E+00
(PID.TID 0000.0001)  ploadbar=  1.01000672133909E+05
 cg2d: Sum(rhs),rhsMax =  -1.02384862914191E+02  1.36879262381468E+00
(PID.TID 0000.0001)  ploadbar=  1.00999957821509E+05
 cg2d: Sum(rhs),rhsMax =  -1.02151959194751E+02  1.37195597105943E+00
(PID.TID 0000.0001)  ploadbar=  1.00999243509108E+05
 cg2d: Sum(rhs),rhsMax =  -1.02052489676559E+02  1.37330525016049E+00
(PID.TID 0000.0001)  ploadbar=  1.00998529196708E+05
 cg2d: Sum(rhs),rhsMax =  -1.02058487782281E+02  1.37326200527662E+00
(PID.TID 0000.0001)  ploadbar=  1.00996871790978E+05
 cg2d: Sum(rhs),rhsMax =  -1.02215669880733E+02  1.37120587089098E+00
(PID.TID 0000.0001)  ploadbar=  1.00995214385247E+05
 cg2d: Sum(rhs),rhsMax =  -1.02486228595282E+02  1.36765500363646E+00
(PID.TID 0000.0001)  ploadbar=  1.00993556979517E+05
 cg2d: Sum(rhs),rhsMax =  -1.02855341298259E+02  1.36282190211947E+00
(PID.TID 0000.0001)  ploadbar=  1.00991899573787E+05
 cg2d: Sum(rhs),rhsMax =  -1.03300513682000E+02  1.35702216439290E+00
(PID.TID 0000.0001)  ploadbar=  1.00990242168057E+05
 cg2d: Sum(rhs),rhsMax =  -1.03841573409166E+02  1.35001744993217E+00
(PID.TID 0000.0001)  ploadbar=  1.00988584762327E+05
 cg2d: Sum(rhs),rhsMax =  -1.04436560411263E+02  1.34238549726466E+00
(PID.TID 0000.0001)  ploadbar=  1.00986630479484E+05
 cg2d: Sum(rhs),rhsMax =  -1.05102477601079E+02  1.33392301201657E+00
(PID.TID 0000.0001)  ploadbar=  1.00984676196641E+05
 cg2d: Sum(rhs),rhsMax =  -1.05818911096838E+02  1.32491712878249E+00
(PID.TID 0000.0001)  ploadbar=  1.00982721913799E+05
 cg2d: Sum(rhs),rhsMax =  -1.06567150233456E+02  1.31561820584012E+00
(PID.TID 0000.0001)  ploadbar=  1.00980767630956E+05
 cg2d: Sum(rhs),rhsMax =  -1.07344645228467E+02  1.30606593928364E+00
(PID.TID 0000.0001)  ploadbar=  1.00978813348113E+05
 cg2d: Sum(rhs),rhsMax =  -1.08149671565973E+02  1.29628717111850E+00
(PID.TID 0000.0001)  ploadbar=  1.00976859065270E+05
 cg2d: Sum(rhs),rhsMax =  -1.09013464562079E+02  1.28600832728075E+00
(PID.TID 0000.0001)  ploadbar=  1.00975125326769E+05
 cg2d: Sum(rhs),rhsMax =  -1.09915548268623E+02  1.27548087869805E+00
(PID.TID 0000.0001)  ploadbar=  1.00973391588268E+05
 cg2d: Sum(rhs),rhsMax =  -1.10894803815640E+02  1.26427475374350E+00
(PID.TID 0000.0001)  ploadbar=  1.00971657849768E+05
 cg2d: Sum(rhs),rhsMax =  -1.11806537374171E+02  1.25405077587512E+00
(PID.TID 0000.0001)  ploadbar=  1.00969924111267E+05
 cg2d: Sum(rhs),rhsMax =  -1.11812397503439E+02  1.25410297444376E+00
(PID.TID 0000.0001)  ploadbar=  1.00968190372766E+05
 cg2d: Sum(rhs),rhsMax =  -1.11929771734257E+02  1.25294431246182E+00
(PID.TID 0000.0001)  ploadbar=  1.00966456634265E+05
 cg2d: Sum(rhs),rhsMax =  -1.11407943465968E+02  1.25896892849347E+00
(PID.TID 0000.0001)  ploadbar=  1.00965739105134E+05
 cg2d: Sum(rhs),rhsMax =  -1.10286392813525E+02  1.27191866408009E+00
(PID.TID 0000.0001)  ploadbar=  1.00965021576004E+05
 cg2d: Sum(rhs),rhsMax =  -1.09181542222127E+02  1.28492432191355E+00
(PID.TID 0000.0001)  ploadbar=  1.00964304046873E+05
 cg2d: Sum(rhs),rhsMax =  -1.08094223279643E+02  1.29796851954373E+00
(PID.TID 0000.0001)  ploadbar=  1.00963586517742E+05
 cg2d: Sum(rhs),rhsMax =  -1.07022831209088E+02  1.31106124983662E+00
(PID.TID 0000.0001)  ploadbar=  1.00962868988611E+05
 cg2d: Sum(rhs),rhsMax =  -1.05967525940299E+02  1.32419086061444E+00
(PID.TID 0000.0001)  ploadbar=  1.00962151459481E+05
 cg2d: Sum(rhs),rhsMax =  -1.05008296619483E+02  1.33637091212241E+00
(PID.TID 0000.0001)  ploadbar=  1.00962245858398E+05
 cg2d: Sum(rhs),rhsMax =  -1.04179103000230E+02  1.34709288139530E+00
(PID.TID 0000.0001)  ploadbar=  1.00962340257315E+05
 cg2d: Sum(rhs),rhsMax =  -1.03488773851088E+02  1.35616239538023E+00
(PID.TID 0000.0001)  ploadbar=  1.00962434656232E+05
 cg2d: Sum(rhs),rhsMax =  -1.02929719473142E+02  1.36360729123833E+00
(PID.TID 0000.0001)  ploadbar=  1.00962529055148E+05
 cg2d: Sum(rhs),rhsMax =  -1.02491155903649E+02  1.36951805736531E+00
(PID.TID 0000.0001)  ploadbar=  1.00962623454065E+05
 cg2d: Sum(rhs),rhsMax =  -1.02162517819850E+02  1.37399401960128E+00
(PID.TID 0000.0001)  ploadbar=  1.00962717852982E+05
 cg2d: Sum(rhs),rhsMax =  -1.01863609303705E+02  1.37809157321502E+00
(PID.TID 0000.0001)  ploadbar=  1.00962100775949E+05
 cg2d: Sum(rhs),rhsMax =  -1.01555693638650E+02  1.38231989592099E+00
(PID.TID 0000.0001)  ploadbar=  1.00961483698916E+05
 cg2d: Sum(rhs),rhsMax =  -1.01245720509668E+02  1.38657663476938E+00
(PID.TID 0000.0001)  ploadbar=  1.00960866621883E+05
 cg2d: Sum(rhs),rhsMax =  -1.01083388281965E+02  1.38879862210632E+00
(PID.TID 0000.0001)  ploadbar=  1.00960249544850E+05
 cg2d: Sum(rhs),rhsMax =  -1.01185029633811E+02  1.38736589472946E+00
(PID.TID 0000.0001)  ploadbar=  1.00959632467817E+05
 cg2d: Sum(rhs),rhsMax =  -1.01523476683729E+02  1.38266869876655E+00
(PID.TID 0000.0001)  ploadbar=  1.00959015390784E+05
 cg2d: Sum(rhs),rhsMax =  -1.02057427513341E+02  1.37541215643388E+00
(PID.TID 0000.0001)  ploadbar=  1.00958758632445E+05
 cg2d: Sum(rhs),rhsMax =  -1.02609496752046E+02  1.36802353416135E+00
(PID.TID 0000.0001)  ploadbar=  1.00958501874106E+05
 cg2d: Sum(rhs),rhsMax =  -1.03371877287260E+02  1.35797395633304E+00
(PID.TID 0000.0001)  ploadbar=  1.00958245115767E+05
 cg2d: Sum(rhs),rhsMax =  -1.04314025069511E+02  1.34577389933520E+00
(PID.TID 0000.0001)  ploadbar=  1.00957988357429E+05
 cg2d: Sum(rhs),rhsMax =  -1.05398174181817E+02  1.33202476337217E+00
(PID.TID 0000.0001)  ploadbar=  1.00957731599090E+05
 cg2d: Sum(rhs),rhsMax =  -1.06607363392171E+02  1.31704261116429E+00
(PID.TID 0000.0001)  ploadbar=  1.00957474840751E+05
 cg2d: Sum(rhs),rhsMax =  -1.07888311093799E+02  1.30152547612953E+00
(PID.TID 0000.0001)  ploadbar=  1.00958372071887E+05
 cg2d: Sum(rhs),rhsMax =  -1.09243483204792E+02  1.28547298033571E+00
(PID.TID 0000.0001)  ploadbar=  1.00959269303024E+05
 cg2d: Sum(rhs),rhsMax =  -1.10701582522902E+02  1.26860957388791E+00
(PID.TID 0000.0001)  ploadbar=  1.00960166534160E+05
 cg2d: Sum(rhs),rhsMax =  -1.12336666938908E+02  1.25018754530186E+00
(PID.TID 0000.0001)  ploadbar=  1.00961063765297E+05
 cg2d: Sum(rhs),rhsMax =  -1.13393246553153E+02  1.23855361364577E+00
(PID.TID 0000.0001)  ploadbar=  1.00961960996433E+05
 cg2d: Sum(rhs),rhsMax =  -1.13150886312725E+02  1.24119210423308E+00
(PID.TID 0000.0001)  ploadbar=  1.00962858227570E+05
 cg2d: Sum(rhs),rhsMax =  -1.12878319304619E+02  1.24418457515661E+00
(PID.TID 0000.0001)  ploadbar=  1.00963504467155E+05
 cg2d: Sum(rhs),rhsMax =  -1.12569791729904E+02  1.24759094228250E+00
(PID.TID 0000.0001)  ploadbar=  1.00964150706740E+05
 cg2d: Sum(rhs),rhsMax =  -1.12245084317127E+02  1.25119850567479E+00
(PID.TID 0000.0001)  ploadbar=  1.00964796946326E+05
 cg2d: Sum(rhs),rhsMax =  -1.11931746461640E+02  1.25470574905626E+00
(PID.TID 0000.0001)  ploadbar=  1.00965443185911E+05
 cg2d: Sum(rhs),rhsMax =  -1.11656248492143E+02  1.25781083411636E+00
(PID.TID 0000.0001)  ploadbar=  1.00966089425497E+05
 cg2d: Sum(rhs),rhsMax =  -1.11485635987274E+02  1.25974029983223E+00
(PID.TID 0000.0001)  ploadbar=  1.00966735665082E+05
 cg2d: Sum(rhs),rhsMax =  -1.11450077530675E+02  1.26014099882812E+00
(PID.TID 0000.0001)  ploadbar=  1.00967849196375E+05
 cg2d: Sum(rhs),rhsMax =  -1.10662003671471E+02  1.26909132907316E+00
(PID.TID 0000.0001)  ploadbar=  1.00968962727668E+05
 cg2d: Sum(rhs),rhsMax =  -1.09907664678657E+02  1.27774885971313E+00
(PID.TID 0000.0001)  ploadbar=  1.00970076258960E+05
 cg2d: Sum(rhs),rhsMax =  -1.09167795409604E+02  1.28632422937444E+00
(PID.TID 0000.0001)  ploadbar=  1.00971189790253E+05
 cg2d: Sum(rhs),rhsMax =  -1.08435926980428E+02  1.29488902890930E+00
(PID.TID 0000.0001)  ploadbar=  1.00972303321546E+05
 cg2d: Sum(rhs),rhsMax =  -1.07766676447954E+02  1.30278000781477E+00
(PID.TID 0000.0001)  ploadbar=  1.00973416852839E+05
 cg2d: Sum(rhs),rhsMax =  -1.06894975219806E+02  1.31331619381578E+00
(PID.TID 0000.0001)  ploadbar=  1.00974583684650E+05
 cg2d: Sum(rhs),rhsMax =  -1.05871610179040E+02  1.32597359917945E+00
(PID.TID 0000.0001)  ploadbar=  1.00975750516461E+05
 cg2d: Sum(rhs),rhsMax =  -1.04817988168470E+02  1.33931221884550E+00
(PID.TID 0000.0001)  ploadbar=  1.00976917348273E+05
 cg2d: Sum(rhs),rhsMax =  -1.03787820970014E+02  1.35266510980795E+00
(PID.TID 0000.0001)  ploadbar=  1.00978084180084E+05
 cg2d: Sum(rhs),rhsMax =  -1.02832706716712E+02  1.36533921480192E+00
(PID.TID 0000.0001)  ploadbar=  1.00979251011895E+05
 cg2d: Sum(rhs),rhsMax =  -1.02017720075124E+02  1.37640851830869E+00
(PID.TID 0000.0001)  ploadbar=  1.00980417843707E+05
 cg2d: Sum(rhs),rhsMax =  -1.00693330130433E+02  1.39466799953696E+00
(PID.TID 0000.0001)  ploadbar=  1.00981159009481E+05
 cg2d: Sum(rhs),rhsMax =  -9.92148053998463E+01  1.41558673519052E+00
(PID.TID 0000.0001)  ploadbar=  1.00981900175255E+05
 cg2d: Sum(rhs),rhsMax =  -9.78010436067437E+01  1.43616115045631E+00
(PID.TID 0000.0001)  ploadbar=  1.00982641341029E+05
 cg2d: Sum(rhs),rhsMax =  -9.62991450548373E+01  1.45864695029589E+00
(PID.TID 0000.0001)  ploadbar=  1.00983382506803E+05
 cg2d: Sum(rhs),rhsMax =  -9.48574266898234E+01  1.48088058250104E+00
(PID.TID 0000.0001)  ploadbar=  1.00984123672577E+05
 cg2d: Sum(rhs),rhsMax =  -9.34595647656715E+01  1.50306477275146E+00
(PID.TID 0000.0001)  ploadbar=  1.00984864838351E+05
 cg2d: Sum(rhs),rhsMax =  -9.21956390327101E+01  1.52372556363238E+00
(PID.TID 0000.0001)  ploadbar=  1.00985202528938E+05
 cg2d: Sum(rhs),rhsMax =  -9.11223504829284E+01  1.54173632575517E+00
(PID.TID 0000.0001)  ploadbar=  1.00985540219525E+05
 cg2d: Sum(rhs),rhsMax =  -9.02332435075226E+01  1.55699510205976E+00
(PID.TID 0000.0001)  ploadbar=  1.00985877910112E+05
 cg2d: Sum(rhs),rhsMax =  -8.94958422691972E+01  1.56989245741217E+00
(PID.TID 0000.0001)  ploadbar=  1.00986215600699E+05
 cg2d: Sum(rhs),rhsMax =  -8.88757252371370E+01  1.58090533497615E+00
(PID.TID 0000.0001)  ploadbar=  1.00986553291286E+05
 cg2d: Sum(rhs),rhsMax =  -8.83984368351662E+01  1.58946777266228E+00
(PID.TID 0000.0001)  ploadbar=  1.00986890981873E+05
 cg2d: Sum(rhs),rhsMax =  -8.79977106145970E+01  1.59671110167028E+00
(PID.TID 0000.0001)  ploadbar=  1.00987642909215E+05
 cg2d: Sum(rhs),rhsMax =  -8.76802087776682E+01  1.60246231193211E+00
(PID.TID 0000.0001)  ploadbar=  1.00988394836557E+05
 cg2d: Sum(rhs),rhsMax =  -8.74625758665097E+01  1.60637480673329E+00
(PID.TID 0000.0001)  ploadbar=  1.00989146763898E+05
 cg2d: Sum(rhs),rhsMax =  -8.73489027481022E+01  1.60834395294641E+00
(PID.TID 0000.0001)  ploadbar=  1.00989898691240E+05
 cg2d: Sum(rhs),rhsMax =  -8.73463939862431E+01  1.60822492274000E+00
(PID.TID 0000.0001)  ploadbar=  1.00990650618582E+05
 cg2d: Sum(rhs),rhsMax =  -8.74563432112516E+01  1.60599921086928E+00
(PID.TID 0000.0001)  ploadbar=  1.00991402545924E+05
 cg2d: Sum(rhs),rhsMax =  -8.76114216775194E+01  1.60301347014187E+00
(PID.TID 0000.0001)  ploadbar=  1.00992140637129E+05
 cg2d: Sum(rhs),rhsMax =  -8.77872507824847E+01  1.59969243399960E+00
(PID.TID 0000.0001)  ploadbar=  1.00992878728335E+05
 cg2d: Sum(rhs),rhsMax =  -8.80015927610849E+01  1.59570438479840E+00
(PID.TID 0000.0001)  ploadbar=  1.00993616819540E+05
 cg2d: Sum(rhs),rhsMax =  -8.82481140753634E+01  1.59116996919261E+00
(PID.TID 0000.0001)  ploadbar=  1.00994354910746E+05
 cg2d: Sum(rhs),rhsMax =  -8.85306661499247E+01  1.58602499770536E+00
(PID.TID 0000.0001)  ploadbar=  1.00995093001951E+05
 cg2d: Sum(rhs),rhsMax =  -8.88596323800350E+01  1.58009342640353E+00
(PID.TID 0000.0001)  ploadbar=  1.00995831093156E+05
 cg2d: Sum(rhs),rhsMax =  -8.91653437908782E+01  1.57460819651266E+00
(PID.TID 0000.0001)  ploadbar=  1.00997480277912E+05
 cg2d: Sum(rhs),rhsMax =  -8.94853703944980E+01  1.56889355790410E+00
(PID.TID 0000.0001)  ploadbar=  1.00999129462667E+05
 cg2d: Sum(rhs),rhsMax =  -8.99622568834824E+01  1.56047809633271E+00
(PID.TID 0000.0001)  ploadbar=  1.01000778647422E+05
 cg2d: Sum(rhs),rhsMax =  -9.05967073891008E+01  1.54943601382727E+00
(PID.TID 0000.0001)  ploadbar=  1.01002427832178E+05
 cg2d: Sum(rhs),rhsMax =  -9.13888596185713E+01  1.53587410618474E+00
(PID.TID 0000.0001)  ploadbar=  1.01004077016933E+05
 cg2d: Sum(rhs),rhsMax =  -9.23344299662734E+01  1.51999581775912E+00
(PID.TID 0000.0001)  ploadbar=  1.01005726201688E+05
 cg2d: Sum(rhs),rhsMax =  -9.33533270431414E+01  1.50328914036899E+00
(PID.TID 0000.0001)  ploadbar=  1.01006788109150E+05
 cg2d: Sum(rhs),rhsMax =  -9.43882964651051E+01  1.48670720332527E+00
(PID.TID 0000.0001)  ploadbar=  1.01007850016612E+05
 cg2d: Sum(rhs),rhsMax =  -9.54285025377194E+01  1.47042043886723E+00
(PID.TID 0000.0001)  ploadbar=  1.01008911924074E+05
 cg2d: Sum(rhs),rhsMax =  -9.64838659872500E+01  1.45427059374085E+00
(PID.TID 0000.0001)  ploadbar=  1.01009973831536E+05
 cg2d: Sum(rhs),rhsMax =  -9.75491884594085E+01  1.43832778421508E+00
(PID.TID 0000.0001)  ploadbar=  1.01011035738998E+05
 cg2d: Sum(rhs),rhsMax =  -9.86515190615489E+01  1.42218265465023E+00
(PID.TID 0000.0001)  ploadbar=  1.01012097646460E+05
 cg2d: Sum(rhs),rhsMax =  -9.97804184487589E+01  1.40602109115563E+00
(PID.TID 0000.0001)  ploadbar=  1.01013008242109E+05
 cg2d: Sum(rhs),rhsMax =  -1.00940836882453E+02  1.38977242105299E+00
(PID.TID 0000.0001)  ploadbar=  1.01013918837757E+05
 cg2d: Sum(rhs),rhsMax =  -1.02132172252395E+02  1.37345517981659E+00
(PID.TID 0000.0001)  ploadbar=  1.01014829433406E+05
 cg2d: Sum(rhs),rhsMax =  -1.03363491739488E+02  1.35696988877961E+00
(PID.TID 0000.0001)  ploadbar=  1.01015740029055E+05
 cg2d: Sum(rhs),rhsMax =  -1.04629540606524E+02  1.34040855053522E+00
(PID.TID 0000.0001)  ploadbar=  1.01016650624703E+05
 cg2d: Sum(rhs),rhsMax =  -1.05920570550298E+02  1.32391266990754E+00
(PID.TID 0000.0001)  ploadbar=  1.01017561220352E+05
 cg2d: Sum(rhs),rhsMax =  -1.07265613110260E+02  1.30721181989523E+00
(PID.TID 0000.0001)  ploadbar=  1.01018482032866E+05
 cg2d: Sum(rhs),rhsMax =  -1.08619994540128E+02  1.29085114708565E+00
(PID.TID 0000.0001)  ploadbar=  1.01019402845380E+05
 cg2d: Sum(rhs),rhsMax =  -1.10006013809540E+02  1.27455373640873E+00
(PID.TID 0000.0001)  ploadbar=  1.01020323657894E+05
 cg2d: Sum(rhs),rhsMax =  -1.11429101557467E+02  1.25826802629825E+00
(PID.TID 0000.0001)  ploadbar=  1.01021244470408E+05
 cg2d: Sum(rhs),rhsMax =  -1.12897608441260E+02  1.24191896856038E+00
(PID.TID 0000.0001)  ploadbar=  1.01022165282922E+05
 cg2d: Sum(rhs),rhsMax =  -1.13823756214340E+02  1.23185648887521E+00
(PID.TID 0000.0001)  ploadbar=  1.01023086095436E+05
 cg2d: Sum(rhs),rhsMax =  -1.13809492183308E+02  1.23205766871775E+00
(PID.TID 0000.0001)  ploadbar=  1.01023125635523E+05
 cg2d: Sum(rhs),rhsMax =  -1.14140017610602E+02  1.22853239836272E+00
(PID.TID 0000.0001)  ploadbar=  1.01023165175611E+05
 cg2d: Sum(rhs),rhsMax =  -1.14797846991530E+02  1.22153591956452E+00
(PID.TID 0000.0001)  ploadbar=  1.01023204715698E+05
 cg2d: Sum(rhs),rhsMax =  -1.15719320440916E+02  1.21185399627399E+00
(PID.TID 0000.0001)  ploadbar=  1.01023244255786E+05
 cg2d: Sum(rhs),rhsMax =  -1.16851365331631E+02  1.20015570922618E+00
(PID.TID 0000.0001)  ploadbar=  1.01023283795873E+05
 cg2d: Sum(rhs),rhsMax =  -1.18168328090611E+02  1.18681475397748E+00
(PID.TID 0000.0001)  ploadbar=  1.01023323335961E+05
 cg2d: Sum(rhs),rhsMax =  -1.18620534302074E+02  1.18233050143857E+00
(PID.TID 0000.0001)  ploadbar=  1.01023021048700E+05
 cg2d: Sum(rhs),rhsMax =  -1.18735839481224E+02  1.18121951028359E+00
(PID.TID 0000.0001)  ploadbar=  1.01022718761439E+05
 cg2d: Sum(rhs),rhsMax =  -1.18945467293267E+02  1.17916884158139E+00
(PID.TID 0000.0001)  ploadbar=  1.01022416474178E+05
 cg2d: Sum(rhs),rhsMax =  -1.19242372283714E+02  1.17625693493074E+00
(PID.TID 0000.0001)  ploadbar=  1.01022114186918E+05
 cg2d: Sum(rhs),rhsMax =  -1.18380022322630E+02  1.18483590273732E+00
(PID.TID 0000.0001)  ploadbar=  1.01021811899657E+05
 cg2d: Sum(rhs),rhsMax =  -1.17013365955427E+02  1.19867784214696E+00
(PID.TID 0000.0001)  ploadbar=  1.01021509612396E+05
 cg2d: Sum(rhs),rhsMax =  -1.15775930206372E+02  1.21148520380163E+00
(PID.TID 0000.0001)  ploadbar=  1.01021851840618E+05
 cg2d: Sum(rhs),rhsMax =  -1.14682225909651E+02  1.22299751382790E+00
(PID.TID 0000.0001)  ploadbar=  1.01022194068840E+05
 cg2d: Sum(rhs),rhsMax =  -1.13727909882833E+02  1.23317594041923E+00
(PID.TID 0000.0001)  ploadbar=  1.01022536297061E+05
 cg2d: Sum(rhs),rhsMax =  -1.12886945571214E+02  1.24223826126917E+00
(PID.TID 0000.0001)  ploadbar=  1.01022878525283E+05
 cg2d: Sum(rhs),rhsMax =  -1.12146108686533E+02  1.25028278419521E+00
(PID.TID 0000.0001)  ploadbar=  1.01023220753505E+05
 cg2d: Sum(rhs),rhsMax =  -1.11487123096894E+02  1.25747625235042E+00
(PID.TID 0000.0001)  ploadbar=  1.01023562981726E+05
 cg2d: Sum(rhs),rhsMax =  -1.10810625946992E+02  1.26500196784925E+00
(PID.TID 0000.0001)  ploadbar=  1.01023835710298E+05
 cg2d: Sum(rhs),rhsMax =  -1.10075655167577E+02  1.27332528871457E+00
(PID.TID 0000.0001)  ploadbar=  1.01024108438870E+05
 cg2d: Sum(rhs),rhsMax =  -1.09261486183199E+02  1.28271432087418E+00
(PID.TID 0000.0001)  ploadbar=  1.01024381167442E+05
 cg2d: Sum(rhs),rhsMax =  -1.08425591225380E+02  1.29253181717699E+00
(PID.TID 0000.0001)  ploadbar=  1.01024653896013E+05
 cg2d: Sum(rhs),rhsMax =  -1.07613367383421E+02  1.30224462609660E+00
(PID.TID 0000.0001)  ploadbar=  1.01024926624585E+05
 cg2d: Sum(rhs),rhsMax =  -1.06851865178253E+02  1.31150853168010E+00
(PID.TID 0000.0001)  ploadbar=  1.01025199353157E+05
 cg2d: Sum(rhs),rhsMax =  -1.06188537738583E+02  1.31970529181324E+00
(PID.TID 0000.0001)  ploadbar=  1.01026171224154E+05
 cg2d: Sum(rhs),rhsMax =  -1.05634394354870E+02  1.32664261118655E+00
(PID.TID 0000.0001)  ploadbar=  1.01027143095151E+05
 cg2d: Sum(rhs),rhsMax =  -1.05162629187227E+02  1.33261424946619E+00
(PID.TID 0000.0001)  ploadbar=  1.01028114966147E+05
 cg2d: Sum(rhs),rhsMax =  -1.04740193510528E+02  1.33801629802027E+00
(PID.TID 0000.0001)  ploadbar=  1.01029086837144E+05
 cg2d: Sum(rhs),rhsMax =  -1.04322179112575E+02  1.34341237869464E+00
(PID.TID 0000.0001)  ploadbar=  1.01030058708141E+05
 cg2d: Sum(rhs),rhsMax =  -1.03892585890096E+02  1.34900699371273E+00
(PID.TID 0000.0001)  ploadbar=  1.01031030579138E+05
 cg2d: Sum(rhs),rhsMax =  -1.03428104891250E+02  1.35509525630678E+00
(PID.TID 0000.0001)  ploadbar=  1.01031954661854E+05
 cg2d: Sum(rhs),rhsMax =  -1.02908755493258E+02  1.36194278443878E+00
(PID.TID 0000.0001)  ploadbar=  1.01032878744570E+05
 cg2d: Sum(rhs),rhsMax =  -1.02348001814628E+02  1.36938726674874E+00
(PID.TID 0000.0001)  ploadbar=  1.01033802827286E+05
 cg2d: Sum(rhs),rhsMax =  -1.01753014581953E+02  1.37734967252306E+00
(PID.TID 0000.0001)  ploadbar=  1.01034726910001E+05
 cg2d: Sum(rhs),rhsMax =  -1.01147522815904E+02  1.38551312655259E+00
(PID.TID 0000.0001)  ploadbar=  1.01035650992717E+05
 cg2d: Sum(rhs),rhsMax =  -1.00591364059414E+02  1.39305445166996E+00
(PID.TID 0000.0001)  ploadbar=  1.01036575075433E+05
 cg2d: Sum(rhs),rhsMax =  -1.00028055866974E+02  1.40076639481993E+00
(PID.TID 0000.0001)  ploadbar=  1.01037786881868E+05
 cg2d: Sum(rhs),rhsMax =  -9.95451567302228E+01  1.40739071242630E+00
(PID.TID 0000.0001)  ploadbar=  1.01038998688303E+05
 cg2d: Sum(rhs),rhsMax =  -9.91599071429656E+01  1.41264378523389E+00
(PID.TID 0000.0001)  ploadbar=  1.01040210494737E+05
 cg2d: Sum(rhs),rhsMax =  -9.88728878690760E+01  1.41648423680241E+00
(PID.TID 0000.0001)  ploadbar=  1.01041422301172E+05
 cg2d: Sum(rhs),rhsMax =  -9.86556697975238E+01  1.41929887763548E+00
(PID.TID 0000.0001)  ploadbar=  1.01042634107607E+05
 cg2d: Sum(rhs),rhsMax =  -9.84852830205848E+01  1.42141070408827E+00
(PID.TID 0000.0001)  ploadbar=  1.01043845914042E+05
 cg2d: Sum(rhs),rhsMax =  -9.83267140578867E+01  1.42341414903908E+00
(PID.TID 0000.0001)  ploadbar=  1.01044941467327E+05
 cg2d: Sum(rhs),rhsMax =  -9.81825220079547E+01  1.42525063545249E+00
(PID.TID 0000.0001)  ploadbar=  1.01046037020612E+05
 cg2d: Sum(rhs),rhsMax =  -9.80579255599328E+01  1.42684043833136E+00
(PID.TID 0000.0001)  ploadbar=  1.01047132573897E+05
 cg2d: Sum(rhs),rhsMax =  -9.79591796268940E+01  1.42809431153474E+00
(PID.TID 0000.0001)  ploadbar=  1.01048228127181E+05
 cg2d: Sum(rhs),rhsMax =  -9.78999972715566E+01  1.42882143434398E+00
(PID.TID 0000.0001)  ploadbar=  1.01049323680466E+05
 cg2d: Sum(rhs),rhsMax =  -9.78968666434815E+01  1.42878993952374E+00
(PID.TID 0000.0001)  ploadbar=  1.01050419233751E+05
 cg2d: Sum(rhs),rhsMax =  -9.80839337590342E+01  1.42603044074217E+00
(PID.TID 0000.0001)  ploadbar=  1.01050632295125E+05
 cg2d: Sum(rhs),rhsMax =  -9.82507149776361E+01  1.42359531155855E+00
(PID.TID 0000.0001)  ploadbar=  1.01050845356499E+05
 cg2d: Sum(rhs),rhsMax =  -9.84774350946306E+01  1.42031709667314E+00
(PID.TID 0000.0001)  ploadbar=  1.01051058417872E+05
 cg2d: Sum(rhs),rhsMax =  -9.87933334927555E+01  1.41578542656467E+00
(PID.TID 0000.0001)  ploadbar=  1.01051271479246E+05
 cg2d: Sum(rhs),rhsMax =  -9.91423946631410E+01  1.41081615509663E+00
(PID.TID 0000.0001)  ploadbar=  1.01051484540620E+05
 cg2d: Sum(rhs),rhsMax =  -9.95068982595687E+01  1.40566484524808E+00
(PID.TID 0000.0001)  ploadbar=  1.01051697601993E+05
 cg2d: Sum(rhs),rhsMax =  -9.98177686830062E+01  1.40130736228472E+00
(PID.TID 0000.0001)  ploadbar=  1.01052125351764E+05
 cg2d: Sum(rhs),rhsMax =  -1.00012688773517E+02  1.39859105164567E+00
(PID.TID 0000.0001)  ploadbar=  1.01052553101535E+05
 cg2d: Sum(rhs),rhsMax =  -1.00112141535624E+02  1.39721092900284E+00
(PID.TID 0000.0001)  ploadbar=  1.01052980851306E+05
 cg2d: Sum(rhs),rhsMax =  -1.00133053069500E+02  1.39691894887080E+00
(PID.TID 0000.0001)  ploadbar=  1.01053408601077E+05
 cg2d: Sum(rhs),rhsMax =  -1.00106118745063E+02  1.39728175730144E+00
(PID.TID 0000.0001)  ploadbar=  1.01053836350848E+05
 cg2d: Sum(rhs),rhsMax =  -1.00085431996745E+02  1.39754181169814E+00
(PID.TID 0000.0001)  ploadbar=  1.01054264100619E+05
 cg2d: Sum(rhs),rhsMax =  -1.00105663958926E+02  1.39721746631846E+00
(PID.TID 0000.0001)  ploadbar=  1.01054417503460E+05
 cg2d: Sum(rhs),rhsMax =  -1.00183368562824E+02  1.39606086465796E+00
(PID.TID 0000.0001)  ploadbar=  1.01054570906301E+05
 cg2d: Sum(rhs),rhsMax =  -1.00300397795192E+02  1.39432369744167E+00
(PID.TID 0000.0001)  ploadbar=  1.01054724309143E+05
 cg2d: Sum(rhs),rhsMax =  -1.00434791816571E+02  1.39231376117700E+00
(PID.TID 0000.0001)  ploadbar=  1.01054877711984E+05
 cg2d: Sum(rhs),rhsMax =  -1.00556610164134E+02  1.39044489114171E+00
(PID.TID 0000.0001)  ploadbar=  1.01055031114825E+05
 cg2d: Sum(rhs),rhsMax =  -1.00642286375268E+02  1.38903957503112E+00
(PID.TID 0000.0001)  ploadbar=  1.01055184517667E+05
 cg2d: Sum(rhs),rhsMax =  -1.00701903904737E+02  1.38804072043374E+00
(PID.TID 0000.0001)  ploadbar=  1.01055832862900E+05
 cg2d: Sum(rhs),rhsMax =  -1.00675227854380E+02  1.38826000929254E+00
(PID.TID 0000.0001)  ploadbar=  1.01056481208134E+05
 cg2d: Sum(rhs),rhsMax =  -1.00555409350268E+02  1.38979277226129E+00
(PID.TID 0000.0001)  ploadbar=  1.01057129553368E+05
 cg2d: Sum(rhs),rhsMax =  -1.00381875299366E+02  1.39210431232307E+00
(PID.TID 0000.0001)  ploadbar=  1.01057777898602E+05
 cg2d: Sum(rhs),rhsMax =  -1.00191060501957E+02  1.39470803041662E+00
(PID.TID 0000.0001)  ploadbar=  1.01058426243835E+05
 cg2d: Sum(rhs),rhsMax =  -1.00031876863143E+02  1.39693520859078E+00
(PID.TID 0000.0001)  ploadbar=  1.01059074589069E+05
 cg2d: Sum(rhs),rhsMax =  -9.99991564525654E+01  1.39744257436826E+00
(PID.TID 0000.0001)  ploadbar=  1.01060024701810E+05
 cg2d: Sum(rhs),rhsMax =  -1.00077179272563E+02  1.39641425749847E+00
(PID.TID 0000.0001)  ploadbar=  1.01060974814551E+05
 cg2d: Sum(rhs),rhsMax =  -1.00278812657693E+02  1.39367894547310E+00
(PID.TID 0000.0001)  ploadbar=  1.01061924927292E+05
 cg2d: Sum(rhs),rhsMax =  -1.00666276601015E+02  1.38839866521009E+00
(PID.TID 0000.0001)  ploadbar=  1.01062875040033E+05
 cg2d: Sum(rhs),rhsMax =  -1.01236932867054E+02  1.38066920297114E+00
(PID.TID 0000.0001)  ploadbar=  1.01063825152774E+05
 cg2d: Sum(rhs),rhsMax =  -1.01928550882305E+02  1.37139969100396E+00
(PID.TID 0000.0001)  ploadbar=  1.01064775265514E+05
 cg2d: Sum(rhs),rhsMax =  -1.02670986028593E+02  1.36156608519539E+00
(PID.TID 0000.0001)  ploadbar=  1.01065732532221E+05
 cg2d: Sum(rhs),rhsMax =  -1.02449752268461E+02  1.36456656168332E+00
(PID.TID 0000.0001)  ploadbar=  1.01066689798928E+05
 cg2d: Sum(rhs),rhsMax =  -1.01399197232202E+02  1.37874249175429E+00
(PID.TID 0000.0001)  ploadbar=  1.01067647065634E+05
 cg2d: Sum(rhs),rhsMax =  -1.00517666135995E+02  1.39085303249180E+00
(PID.TID 0000.0001)  ploadbar=  1.01068604332341E+05
 cg2d: Sum(rhs),rhsMax =  -9.97977262270596E+01  1.40088356939451E+00
(PID.TID 0000.0001)  ploadbar=  1.01069561599048E+05
 cg2d: Sum(rhs),rhsMax =  -9.92150058739888E+01  1.40907687598857E+00
(PID.TID 0000.0001)  ploadbar=  1.01070518865754E+05
 cg2d: Sum(rhs),rhsMax =  -9.90137897554806E+01  1.41188983612524E+00
(PID.TID 0000.0001)  ploadbar=  1.01071487658011E+05
 cg2d: Sum(rhs),rhsMax =  -9.91528824445842E+01  1.40983090770192E+00
(PID.TID 0000.0001)  ploadbar=  1.01072456450268E+05
 cg2d: Sum(rhs),rhsMax =  -9.95883179884512E+01  1.40355533439899E+00
(PID.TID 0000.0001)  ploadbar=  1.01073425242526E+05
 cg2d: Sum(rhs),rhsMax =  -1.00274743987757E+02  1.39380887140564E+00
(PID.TID 0000.0001)  ploadbar=  1.01074394034783E+05
 cg2d: Sum(rhs),rhsMax =  -1.01165292129818E+02  1.38137763377680E+00
(PID.TID 0000.0001)  ploadbar=  1.01075362827040E+05
 cg2d: Sum(rhs),rhsMax =  -1.02233026887652E+02  1.36676257214250E+00
(PID.TID 0000.0001)  ploadbar=  1.01076331619297E+05
 cg2d: Sum(rhs),rhsMax =  -1.03498414425461E+02  1.34991707158920E+00
(PID.TID 0000.0001)  ploadbar=  1.01077076329857E+05
 cg2d: Sum(rhs),rhsMax =  -1.05053794862889E+02  1.32982686515513E+00
(PID.TID 0000.0001)  ploadbar=  1.01077821040416E+05
 cg2d: Sum(rhs),rhsMax =  -1.06751301331939E+02  1.30860152298686E+00
(PID.TID 0000.0001)  ploadbar=  1.01078565750976E+05
 cg2d: Sum(rhs),rhsMax =  -1.06575998013298E+02  1.31069809689823E+00
(PID.TID 0000.0001)  ploadbar=  1.01079310461536E+05
 cg2d: Sum(rhs),rhsMax =  -1.06196259033445E+02  1.31536716911155E+00
(PID.TID 0000.0001)  ploadbar=  1.01080055172095E+05
 cg2d: Sum(rhs),rhsMax =  -1.05779923227050E+02  1.32058750773779E+00
(PID.TID 0000.0001)  ploadbar=  1.01080799882655E+05
 cg2d: Sum(rhs),rhsMax =  -1.05417513496547E+02  1.32519123673920E+00
(PID.TID 0000.0001)  ploadbar=  1.01081911663028E+05
 cg2d: Sum(rhs),rhsMax =  -1.05170326589193E+02  1.32837212670333E+00
(PID.TID 0000.0001)  ploadbar=  1.01083023443400E+05
 cg2d: Sum(rhs),rhsMax =  -1.05072464725567E+02  1.32968199702764E+00
(PID.TID 0000.0001)  ploadbar=  1.01084135223773E+05
 cg2d: Sum(rhs),rhsMax =  -1.05087151117853E+02  1.32958078740731E+00
(PID.TID 0000.0001)  ploadbar=  1.01085247004145E+05
 cg2d: Sum(rhs),rhsMax =  -1.05158210599073E+02  1.32877644422139E+00
(PID.TID 0000.0001)  ploadbar=  1.01086358784518E+05
 cg2d: Sum(rhs),rhsMax =  -1.05227327933561E+02  1.32799778654720E+00
(PID.TID 0000.0001)  ploadbar=  1.01087470564890E+05
 cg2d: Sum(rhs),rhsMax =  -1.05257011790214E+02  1.32773438408946E+00
(PID.TID 0000.0001)  ploadbar=  1.01088679107958E+05
 cg2d: Sum(rhs),rhsMax =  -1.05193943767006E+02  1.32865112804144E+00
(PID.TID 0000.0001)  ploadbar=  1.01089887651027E+05
 cg2d: Sum(rhs),rhsMax =  -1.05023622034227E+02  1.33093806418411E+00
(PID.TID 0000.0001)  ploadbar=  1.01091096194095E+05
 cg2d: Sum(rhs),rhsMax =  -1.04727813993304E+02  1.33483552274727E+00
(PID.TID 0000.0001)  ploadbar=  1.01092304737163E+05
 cg2d: Sum(rhs),rhsMax =  -1.04371031385913E+02  1.33953489392652E+00
(PID.TID 0000.0001)  ploadbar=  1.01093513280232E+05
 cg2d: Sum(rhs),rhsMax =  -1.03993508946280E+02  1.34452443779133E+00
(PID.TID 0000.0001)  ploadbar=  1.01094721823300E+05
 cg2d: Sum(rhs),rhsMax =  -1.03661873767479E+02  1.34893385867511E+00
(PID.TID 0000.0001)  ploadbar=  1.01095371102940E+05
 cg2d: Sum(rhs),rhsMax =  -1.03392161420317E+02  1.35252934581869E+00
(PID.TID 0000.0001)  ploadbar=  1.01096020382580E+05
 cg2d: Sum(rhs),rhsMax =  -1.03223841122016E+02  1.35477355656104E+00
(PID.TID 0000.0001)  ploadbar=  1.01096669662220E+05
 cg2d: Sum(rhs),rhsMax =  -1.03164308892620E+02  1.35555606952629E+00
(PID.TID 0000.0001)  ploadbar=  1.01097318941861E+05
 cg2d: Sum(rhs),rhsMax =  -1.03181802491069E+02  1.35529092467854E+00
(PID.TID 0000.0001)  ploadbar=  1.01097968221501E+05
 cg2d: Sum(rhs),rhsMax =  -1.03269449137663E+02  1.35407050549068E+00
(PID.TID 0000.0001)  ploadbar=  1.01098617501141E+05
 cg2d: Sum(rhs),rhsMax =  -1.03452555976447E+02  1.35165270891539E+00
(PID.TID 0000.0001)  ploadbar=  1.01099430925222E+05
 cg2d: Sum(rhs),rhsMax =  -1.03666424314694E+02  1.34887067544625E+00
(PID.TID 0000.0001)  ploadbar=  1.01100244349304E+05
 cg2d: Sum(rhs),rhsMax =  -1.03853783938607E+02  1.34647288179505E+00
(PID.TID 0000.0001)  ploadbar=  1.01101057773385E+05
 cg2d: Sum(rhs),rhsMax =  -1.04009322367594E+02  1.34452900194911E+00
(PID.TID 0000.0001)  ploadbar=  1.01101871197466E+05
 cg2d: Sum(rhs),rhsMax =  -1.04122417257746E+02  1.34317704896871E+00
(PID.TID 0000.0001)  ploadbar=  1.01102684621547E+05
 cg2d: Sum(rhs),rhsMax =  -1.04200359930031E+02  1.34231807452650E+00
(PID.TID 0000.0001)  ploadbar=  1.01103498045629E+05
 cg2d: Sum(rhs),rhsMax =  -1.04264799034835E+02  1.34165128708123E+00
(PID.TID 0000.0001)  ploadbar=  1.01103703119546E+05
 cg2d: Sum(rhs),rhsMax =  -1.04324524971931E+02  1.34104652286256E+00
(PID.TID 0000.0001)  ploadbar=  1.01103908193462E+05
 cg2d: Sum(rhs),rhsMax =  -1.04376227102879E+02  1.34055122401959E+00
(PID.TID 0000.0001)  ploadbar=  1.01104113267379E+05
 cg2d: Sum(rhs),rhsMax =  -1.04475246289430E+02  1.33945466477312E+00
(PID.TID 0000.0001)  ploadbar=  1.01104318341296E+05
 cg2d: Sum(rhs),rhsMax =  -1.04681643075824E+02  1.33698718262058E+00
(PID.TID 0000.0001)  ploadbar=  1.01104523415213E+05
 cg2d: Sum(rhs),rhsMax =  -1.04949058191313E+02  1.33374777649671E+00
(PID.TID 0000.0001)  ploadbar=  1.01104728489130E+05
 cg2d: Sum(rhs),rhsMax =  -1.05180593991753E+02  1.33097108385240E+00
(PID.TID 0000.0001)  ploadbar=  1.01105199167165E+05
 cg2d: Sum(rhs),rhsMax =  -1.05366570384754E+02  1.32876493224810E+00
(PID.TID 0000.0001)  ploadbar=  1.01105669845201E+05
 cg2d: Sum(rhs),rhsMax =  -1.05454630134473E+02  1.32778173500625E+00
(PID.TID 0000.0001)  ploadbar=  1.01106140523236E+05
 cg2d: Sum(rhs),rhsMax =  -1.05427863673192E+02  1.32822760950024E+00
(PID.TID 0000.0001)  ploadbar=  1.01106611201272E+05
 cg2d: Sum(rhs),rhsMax =  -1.05286024488810E+02  1.33010415651406E+00
(PID.TID 0000.0001)  ploadbar=  1.01107081879307E+05
 cg2d: Sum(rhs),rhsMax =  -1.05021828745542E+02  1.33350323991422E+00
(PID.TID 0000.0001)  ploadbar=  1.01107552557343E+05
 cg2d: Sum(rhs),rhsMax =  -1.04662855642531E+02  1.33812177828572E+00
(PID.TID 0000.0001)  ploadbar=  1.01107038172342E+05
 cg2d: Sum(rhs),rhsMax =  -1.04323811489031E+02  1.34249799602775E+00
(PID.TID 0000.0001)  ploadbar=  1.01106523787342E+05
 cg2d: Sum(rhs),rhsMax =  -1.04003078626118E+02  1.34664409195212E+00
(PID.TID 0000.0001)  ploadbar=  1.01106009402342E+05
 cg2d: Sum(rhs),rhsMax =  -1.03677657016212E+02  1.35085521314664E+00
(PID.TID 0000.0001)  ploadbar=  1.01105495017342E+05
 cg2d: Sum(rhs),rhsMax =  -1.03365981530913E+02  1.35489117316274E+00
(PID.TID 0000.0001)  ploadbar=  1.01104980632342E+05
 cg2d: Sum(rhs),rhsMax =  -1.03109291596010E+02  1.35820354499994E+00
(PID.TID 0000.0001)  ploadbar=  1.01104466247342E+05
 cg2d: Sum(rhs),rhsMax =  -1.02913114787981E+02  1.36079463655843E+00
(PID.TID 0000.0001)  ploadbar=  1.01104112476018E+05
 cg2d: Sum(rhs),rhsMax =  -1.02749531722605E+02  1.36300140210246E+00
(PID.TID 0000.0001)  ploadbar=  1.01103758704693E+05
 cg2d: Sum(rhs),rhsMax =  -1.02621965619051E+02  1.36477276845370E+00
(PID.TID 0000.0001)  ploadbar=  1.01103404933368E+05
 cg2d: Sum(rhs),rhsMax =  -1.02516044319903E+02  1.36629719293758E+00
(PID.TID 0000.0001)  ploadbar=  1.01103051162044E+05
 cg2d: Sum(rhs),rhsMax =  -1.02428289388301E+02  1.36762093536324E+00
(PID.TID 0000.0001)  ploadbar=  1.01102697390719E+05
 cg2d: Sum(rhs),rhsMax =  -1.02374464691097E+02  1.36854939074468E+00
(PID.TID 0000.0001)  ploadbar=  1.01102343619395E+05
 cg2d: Sum(rhs),rhsMax =  -1.02370318751244E+02  1.36883640003265E+00
(PID.TID 0000.0001)  ploadbar=  1.01101332667425E+05
 cg2d: Sum(rhs),rhsMax =  -1.02409936983273E+02  1.36854459509252E+00
(PID.TID 0000.0001)  ploadbar=  1.01100321715456E+05
 cg2d: Sum(rhs),rhsMax =  -1.02519425391319E+02  1.36732786898929E+00
(PID.TID 0000.0001)  ploadbar=  1.01099310763487E+05
 cg2d: Sum(rhs),rhsMax =  -1.02681697904388E+02  1.36541582754510E+00
(PID.TID 0000.0001)  ploadbar=  1.01098299811517E+05
 cg2d: Sum(rhs),rhsMax =  -1.02871880662023E+02  1.36313416247936E+00
(PID.TID 0000.0001)  ploadbar=  1.01097288859548E+05
 cg2d: Sum(rhs),rhsMax =  -1.03070059115621E+02  1.36074360494286E+00
(PID.TID 0000.0001)  ploadbar=  1.01096277907579E+05
 cg2d: Sum(rhs),rhsMax =  -1.03327930090614E+02  1.35756722213044E+00
(PID.TID 0000.0001)  ploadbar=  1.01094518388269E+05
 cg2d: Sum(rhs),rhsMax =  -1.03564705709616E+02  1.35466464675098E+00
(PID.TID 0000.0001)  ploadbar=  1.01092758868959E+05
 cg2d: Sum(rhs),rhsMax =  -1.03757038941399E+02  1.35233712501834E+00
(PID.TID 0000.0001)  ploadbar=  1.01090999349649E+05
 cg2d: Sum(rhs),rhsMax =  -1.03888003611632E+02  1.35079858778304E+00
(PID.TID 0000.0001)  ploadbar=  1.01089239830339E+05
 cg2d: Sum(rhs),rhsMax =  -1.03970623221256E+02  1.34986733679774E+00
(PID.TID 0000.0001)  ploadbar=  1.01087480311030E+05
 cg2d: Sum(rhs),rhsMax =  -1.04119565281408E+02  1.34804753975738E+00
(PID.TID 0000.0001)  ploadbar=  1.01085720791720E+05
 cg2d: Sum(rhs),rhsMax =  -1.04247193233536E+02  1.34650941444163E+00
(PID.TID 0000.0001)  ploadbar=  1.01084030024133E+05
 cg2d: Sum(rhs),rhsMax =  -1.04326200914602E+02  1.34559265855690E+00
(PID.TID 0000.0001)  ploadbar=  1.01082339256547E+05
 cg2d: Sum(rhs),rhsMax =  -1.04395793650679E+02  1.34478495105344E+00
(PID.TID 0000.0001)  ploadbar=  1.01080648488960E+05
 cg2d: Sum(rhs),rhsMax =  -1.04538056061939E+02  1.34302820008379E+00
(PID.TID 0000.0001)  ploadbar=  1.01078957721374E+05
 cg2d: Sum(rhs),rhsMax =  -1.04781061449733E+02  1.33996711697563E+00
(PID.TID 0000.0001)  ploadbar=  1.01077266953787E+05
 cg2d: Sum(rhs),rhsMax =  -1.05148630624065E+02  1.33531267232756E+00
(PID.TID 0000.0001)  ploadbar=  1.01075576186201E+05
 cg2d: Sum(rhs),rhsMax =  -1.05624512490556E+02  1.32937444286062E+00
(PID.TID 0000.0001)  ploadbar=  1.01074345200349E+05
 cg2d: Sum(rhs),rhsMax =  -1.06277340925843E+02  1.32131204943894E+00
(PID.TID 0000.0001)  ploadbar=  1.01073114214497E+05
 cg2d: Sum(rhs),rhsMax =  -1.05851660533536E+02  1.32675397707055E+00
(PID.TID 0000.0001)  ploadbar=  1.01071883228644E+05
 cg2d: Sum(rhs),rhsMax =  -1.05003715673248E+02  1.33762025560132E+00
(PID.TID 0000.0001)  ploadbar=  1.01070652242792E+05
 cg2d: Sum(rhs),rhsMax =  -1.04210943561893E+02  1.34796838752016E+00
(PID.TID 0000.0001)  ploadbar=  1.01069421256940E+05
 cg2d: Sum(rhs),rhsMax =  -1.03501000466015E+02  1.35741030812065E+00
(PID.TID 0000.0001)  ploadbar=  1.01068190271088E+05
 cg2d: Sum(rhs),rhsMax =  -1.02914170241409E+02  1.36537659907351E+00
(PID.TID 0000.0001)  ploadbar=  1.01068201800849E+05
 cg2d: Sum(rhs),rhsMax =  -1.02471313515102E+02  1.37152402304770E+00
(PID.TID 0000.0001)  ploadbar=  1.01068213330611E+05
 cg2d: Sum(rhs),rhsMax =  -1.02181696360990E+02  1.37567577588588E+00
(PID.TID 0000.0001)  ploadbar=  1.01068224860372E+05
 cg2d: Sum(rhs),rhsMax =  -1.02092446739442E+02  1.37715755262075E+00
(PID.TID 0000.0001)  ploadbar=  1.01068236390134E+05
 cg2d: Sum(rhs),rhsMax =  -1.02168137267279E+02  1.37642415555204E+00
(PID.TID 0000.0001)  ploadbar=  1.01068247919895E+05
 cg2d: Sum(rhs),rhsMax =  -1.02396351693483E+02  1.37364007975052E+00
(PID.TID 0000.0001)  ploadbar=  1.01068259449657E+05
 cg2d: Sum(rhs),rhsMax =  -1.02697128700231E+02  1.36988858741776E+00
(PID.TID 0000.0001)  ploadbar=  1.01067693816830E+05
 cg2d: Sum(rhs),rhsMax =  -1.03018289851592E+02  1.36586703917965E+00
(PID.TID 0000.0001)  ploadbar=  1.01067128184004E+05
 cg2d: Sum(rhs),rhsMax =  -1.03360066848932E+02  1.36157415220333E+00
(PID.TID 0000.0001)  ploadbar=  1.01066562551178E+05
 cg2d: Sum(rhs),rhsMax =  -1.03759496026453E+02  1.35653095702109E+00
(PID.TID 0000.0001)  ploadbar=  1.01065996918352E+05
 cg2d: Sum(rhs),rhsMax =  -1.04202605321088E+02  1.35093192483198E+00
(PID.TID 0000.0001)  ploadbar=  1.01065431285525E+05
 cg2d: Sum(rhs),rhsMax =  -1.04676513972188E+02  1.34495365341781E+00
(PID.TID 0000.0001)  ploadbar=  1.01064865652699E+05
 cg2d: Sum(rhs),rhsMax =  -1.05135565478282E+02  1.33920928151452E+00
(PID.TID 0000.0001)  ploadbar=  1.01065165672544E+05
 cg2d: Sum(rhs),rhsMax =  -1.05518228876042E+02  1.33445521701814E+00
(PID.TID 0000.0001)  ploadbar=  1.01065465692388E+05
 cg2d: Sum(rhs),rhsMax =  -1.05811704826028E+02  1.33082682500295E+00
(PID.TID 0000.0001)  ploadbar=  1.01065765712233E+05
 cg2d: Sum(rhs),rhsMax =  -1.06091348249811E+02  1.32736177428212E+00
(PID.TID 0000.0001)  ploadbar=  1.01066065732078E+05
 cg2d: Sum(rhs),rhsMax =  -1.06464969928303E+02  1.32271298178108E+00
(PID.TID 0000.0001)  ploadbar=  1.01066365751923E+05
 cg2d: Sum(rhs),rhsMax =  -1.06931547802086E+02  1.31691295327488E+00
(PID.TID 0000.0001)  ploadbar=  1.01066665771768E+05
 cg2d: Sum(rhs),rhsMax =  -1.07309859485252E+02  1.31228062412561E+00
(PID.TID 0000.0001)  ploadbar=  1.01067705448289E+05
 cg2d: Sum(rhs),rhsMax =  -1.07533466972254E+02  1.30958067421955E+00
(PID.TID 0000.0001)  ploadbar=  1.01068745124810E+05
 cg2d: Sum(rhs),rhsMax =  -1.07675434076530E+02  1.30790110775981E+00
(PID.TID 0000.0001)  ploadbar=  1.01069784801331E+05
 cg2d: Sum(rhs),rhsMax =  -1.07771302799747E+02  1.30680340392934E+00
(PID.TID 0000.0001)  ploadbar=  1.01070824477852E+05
 cg2d: Sum(rhs),rhsMax =  -1.07908937024875E+02  1.30521674650312E+00
(PID.TID 0000.0001)  ploadbar=  1.01071864154372E+05
 cg2d: Sum(rhs),rhsMax =  -1.08088661122324E+02  1.30313755815758E+00
(PID.TID 0000.0001)  ploadbar=  1.01072903830893E+05
 cg2d: Sum(rhs),rhsMax =  -1.08354040000447E+02  1.30004597651325E+00
(PID.TID 0000.0001)  ploadbar=  1.01073676514122E+05
 cg2d: Sum(rhs),rhsMax =  -1.08692640230518E+02  1.29609748519843E+00
(PID.TID 0000.0001)  ploadbar=  1.01074449197350E+05
 cg2d: Sum(rhs),rhsMax =  -1.09094290429926E+02  1.29142651668593E+00
(PID.TID 0000.0001)  ploadbar=  1.01075221880579E+05
 cg2d: Sum(rhs),rhsMax =  -1.09539821447523E+02  1.28626970240627E+00
(PID.TID 0000.0001)  ploadbar=  1.01075994563807E+05
 cg2d: Sum(rhs),rhsMax =  -1.10027584923826E+02  1.28064841619833E+00
(PID.TID 0000.0001)  ploadbar=  1.01076767247035E+05
 cg2d: Sum(rhs),rhsMax =  -1.10615593545652E+02  1.27390069298896E+00
(PID.TID 0000.0001)  ploadbar=  1.01077539930264E+05
 cg2d: Sum(rhs),rhsMax =  -1.11206037858241E+02  1.26719418116762E+00
(PID.TID 0000.0001)  ploadbar=  1.01077942405293E+05
 cg2d: Sum(rhs),rhsMax =  -1.11740758718474E+02  1.26117583435946E+00
(PID.TID 0000.0001)  ploadbar=  1.01078344880322E+05
 cg2d: Sum(rhs),rhsMax =  -1.12208211723888E+02  1.25595643363984E+00
(PID.TID 0000.0001)  ploadbar=  1.01078747355350E+05
 cg2d: Sum(rhs),rhsMax =  -1.12326663315098E+02  1.25465465570830E+00
(PID.TID 0000.0001)  ploadbar=  1.01079149830379E+05
 cg2d: Sum(rhs),rhsMax =  -1.12449162630753E+02  1.25329481824523E+00
(PID.TID 0000.0001)  ploadbar=  1.01079552305408E+05
 cg2d: Sum(rhs),rhsMax =  -1.12592286903371E+02  1.25168766858852E+00
(PID.TID 0000.0001)  ploadbar=  1.01079954780437E+05
 cg2d: Sum(rhs),rhsMax =  -1.12663671224378E+02  1.25086696146512E+00
(PID.TID 0000.0001)  ploadbar=  1.01080394725756E+05
 cg2d: Sum(rhs),rhsMax =  -1.12752619864528E+02  1.24982657171331E+00
(PID.TID 0000.0001)  ploadbar=  1.01080834671075E+05
 cg2d: Sum(rhs),rhsMax =  -1.12889147047013E+02  1.24822928269278E+00
(PID.TID 0000.0001)  ploadbar=  1.01081274616394E+05
 cg2d: Sum(rhs),rhsMax =  -1.13181413979500E+02  1.24488149408390E+00
(PID.TID 0000.0001)  ploadbar=  1.01081714561713E+05
 cg2d: Sum(rhs),rhsMax =  -1.13591698891852E+02  1.24021921696384E+00
(PID.TID 0000.0001)  ploadbar=  1.01082154507031E+05
 cg2d: Sum(rhs),rhsMax =  -1.14216989844799E+02  1.23322284412130E+00
(PID.TID 0000.0001)  ploadbar=  1.01082594452350E+05
 cg2d: Sum(rhs),rhsMax =  -1.14733653263524E+02  1.22752688102012E+00
(PID.TID 0000.0001)  ploadbar=  1.01082372582597E+05
 cg2d: Sum(rhs),rhsMax =  -1.15131959906321E+02  1.22318351684062E+00
(PID.TID 0000.0001)  ploadbar=  1.01082150712844E+05
 cg2d: Sum(rhs),rhsMax =  -1.15406046789122E+02  1.22022244797751E+00
(PID.TID 0000.0001)  ploadbar=  1.01081928843090E+05
 cg2d: Sum(rhs),rhsMax =  -1.15532361924146E+02  1.21887182827024E+00
(PID.TID 0000.0001)  ploadbar=  1.01081706973337E+05
 cg2d: Sum(rhs),rhsMax =  -1.15326707987158E+02  1.22106482563150E+00
(PID.TID 0000.0001)  ploadbar=  1.01081485103584E+05
 cg2d: Sum(rhs),rhsMax =  -1.15091501327402E+02  1.22361056145571E+00
(PID.TID 0000.0001)  ploadbar=  1.01081263233831E+05
 cg2d: Sum(rhs),rhsMax =  -1.14831012741035E+02  1.22642655469343E+00
(PID.TID 0000.0001)  ploadbar=  1.01081386952650E+05
 cg2d: Sum(rhs),rhsMax =  -1.14530418964959E+02  1.22966218978777E+00
(PID.TID 0000.0001)  ploadbar=  1.01081510671469E+05
 cg2d: Sum(rhs),rhsMax =  -1.14206216510161E+02  1.23314073446469E+00
(PID.TID 0000.0001)  ploadbar=  1.01081634390288E+05
 cg2d: Sum(rhs),rhsMax =  -1.13865972522436E+02  1.23678008186963E+00
(PID.TID 0000.0001)  ploadbar=  1.01081758109107E+05
 cg2d: Sum(rhs),rhsMax =  -1.13534880959840E+02  1.24030665410344E+00
(PID.TID 0000.0001)  ploadbar=  1.01081881827926E+05
 cg2d: Sum(rhs),rhsMax =  -1.13271280606034E+02  1.24308358105971E+00
(PID.TID 0000.0001)  ploadbar=  1.01082005546745E+05
 cg2d: Sum(rhs),rhsMax =  -1.12981868234589E+02  1.24617704920913E+00
(PID.TID 0000.0001)  ploadbar=  1.01082080134388E+05
 cg2d: Sum(rhs),rhsMax =  -1.12677865067896E+02  1.24945020112128E+00
(PID.TID 0000.0001)  ploadbar=  1.01082154722030E+05
 cg2d: Sum(rhs),rhsMax =  -1.12458619419116E+02  1.25180057061730E+00
(PID.TID 0000.0001)  ploadbar=  1.01082229309673E+05
 cg2d: Sum(rhs),rhsMax =  -1.12340729160579E+02  1.25303405901469E+00
(PID.TID 0000.0001)  ploadbar=  1.01082303897315E+05
 cg2d: Sum(rhs),rhsMax =  -1.12314127958598E+02  1.25325436203432E+00
(PID.TID 0000.0001)  ploadbar=  1.01082378484958E+05
 cg2d: Sum(rhs),rhsMax =  -1.12367255211223E+02  1.25258596881485E+00
(PID.TID 0000.0001)  ploadbar=  1.01082453072600E+05
 cg2d: Sum(rhs),rhsMax =  -1.12485012645523E+02  1.25119098886168E+00
(PID.TID 0000.0001)  ploadbar=  1.01081947699879E+05
 cg2d: Sum(rhs),rhsMax =  -1.12633288517423E+02  1.24942894134185E+00
(PID.TID 0000.0001)  ploadbar=  1.01081442327158E+05
 cg2d: Sum(rhs),rhsMax =  -1.12790807089987E+02  1.24753202686405E+00
(PID.TID 0000.0001)  ploadbar=  1.01080936954437E+05
 cg2d: Sum(rhs),rhsMax =  -1.13013282937477E+02  1.24488129095641E+00
(PID.TID 0000.0001)  ploadbar=  1.01080431581715E+05
 cg2d: Sum(rhs),rhsMax =  -1.13387037888089E+02  1.24053793893233E+00
(PID.TID 0000.0001)  ploadbar=  1.01079926208994E+05
 cg2d: Sum(rhs),rhsMax =  -1.13919587901897E+02  1.23445598965281E+00
(PID.TID 0000.0001)  ploadbar=  1.01079420836273E+05
 cg2d: Sum(rhs),rhsMax =  -1.14430350118890E+02  1.22872622102977E+00
(PID.TID 0000.0001)  ploadbar=  1.01077976153326E+05
 cg2d: Sum(rhs),rhsMax =  -1.14937666428239E+02  1.22313096104725E+00
(PID.TID 0000.0001)  ploadbar=  1.01076531470380E+05
 cg2d: Sum(rhs),rhsMax =  -1.15442471320988E+02  1.21764535793245E+00
(PID.TID 0000.0001)  ploadbar=  1.01075086787433E+05
 cg2d: Sum(rhs),rhsMax =  -1.15929375347311E+02  1.21241965920224E+00
(PID.TID 0000.0001)  ploadbar=  1.01073642104487E+05
 cg2d: Sum(rhs),rhsMax =  -1.16385888386324E+02  1.20757147030624E+00
(PID.TID 0000.0001)  ploadbar=  1.01072197421540E+05
 cg2d: Sum(rhs),rhsMax =  -1.16844844112651E+02  1.20274540281312E+00
(PID.TID 0000.0001)  ploadbar=  1.01070752738593E+05
 cg2d: Sum(rhs),rhsMax =  -1.17282300129395E+02  1.19816759173863E+00
(PID.TID 0000.0001)  ploadbar=  1.01069945020714E+05
 cg2d: Sum(rhs),rhsMax =  -1.17699580655062E+02  1.19381153773182E+00
(PID.TID 0000.0001)  ploadbar=  1.01069137302834E+05
 cg2d: Sum(rhs),rhsMax =  -1.18083261716679E+02  1.18980560483057E+00
(PID.TID 0000.0001)  ploadbar=  1.01068329584954E+05
 cg2d: Sum(rhs),rhsMax =  -1.18422018104223E+02  1.18626097023688E+00
(PID.TID 0000.0001)  ploadbar=  1.01067521867074E+05
 cg2d: Sum(rhs),rhsMax =  -1.18721440286317E+02  1.18311506589431E+00
(PID.TID 0000.0001)  ploadbar=  1.01066714149195E+05
 cg2d: Sum(rhs),rhsMax =  -1.18995824327336E+02  1.18021755760857E+00
(PID.TID 0000.0001)  ploadbar=  1.01065906431315E+05
 cg2d: Sum(rhs),rhsMax =  -1.19249438128588E+02  1.17755962799227E+00
(PID.TID 0000.0001)  ploadbar=  1.01066167916094E+05
 cg2d: Sum(rhs),rhsMax =  -1.19464315473674E+02  1.17530069149265E+00
(PID.TID 0000.0001)  ploadbar=  1.01066429400872E+05
 cg2d: Sum(rhs),rhsMax =  -1.19558059558107E+02  1.17424357748478E+00
(PID.TID 0000.0001)  ploadbar=  1.01066690885651E+05
 cg2d: Sum(rhs),rhsMax =  -1.18874924777438E+02  1.18086106696737E+00
(PID.TID 0000.0001)  ploadbar=  1.01066952370430E+05
 cg2d: Sum(rhs),rhsMax =  -1.18251288332184E+02  1.18696321585708E+00
(PID.TID 0000.0001)  ploadbar=  1.01067213855208E+05
 cg2d: Sum(rhs),rhsMax =  -1.17665047919963E+02  1.19274812095268E+00
(PID.TID 0000.0001)  ploadbar=  1.01067475339987E+05
 cg2d: Sum(rhs),rhsMax =  -1.17255810729632E+02  1.19676759247239E+00
(PID.TID 0000.0001)  ploadbar=  1.01067863952598E+05
 cg2d: Sum(rhs),rhsMax =  -1.16896143886317E+02  1.20027694213615E+00
(PID.TID 0000.0001)  ploadbar=  1.01068252565209E+05
 cg2d: Sum(rhs),rhsMax =  -1.16603312386295E+02  1.20308193050766E+00
(PID.TID 0000.0001)  ploadbar=  1.01068641177820E+05
 cg2d: Sum(rhs),rhsMax =  -1.16418116808435E+02  1.20474775931367E+00
(PID.TID 0000.0001)  ploadbar=  1.01069029790430E+05
 cg2d: Sum(rhs),rhsMax =  -1.16335577504531E+02  1.20531513009752E+00
(PID.TID 0000.0001)  ploadbar=  1.01069418403041E+05
 cg2d: Sum(rhs),rhsMax =  -1.16348698951852E+02  1.20485353162410E+00
(PID.TID 0000.0001)  ploadbar=  1.01069807015652E+05
 cg2d: Sum(rhs),rhsMax =  -1.16266033273474E+02  1.20544181582988E+00
(PID.TID 0000.0001)  ploadbar=  1.01069465936345E+05
 cg2d: Sum(rhs),rhsMax =  -1.16245241281680E+02  1.20542584661782E+00
(PID.TID 0000.0001)  ploadbar=  1.01069124857038E+05
 cg2d: Sum(rhs),rhsMax =  -1.16322447838574E+02  1.20441759740090E+00
(PID.TID 0000.0001)  ploadbar=  1.01068783777731E+05
 cg2d: Sum(rhs),rhsMax =  -1.16502368431970E+02  1.20236904736534E+00
(PID.TID 0000.0001)  ploadbar=  1.01068442698424E+05
 cg2d: Sum(rhs),rhsMax =  -1.16778635415966E+02  1.19935575294478E+00
(PID.TID 0000.0001)  ploadbar=  1.01068101619117E+05
 cg2d: Sum(rhs),rhsMax =  -1.17154948009692E+02  1.19534972479509E+00
(PID.TID 0000.0001)  ploadbar=  1.01067760539810E+05
 cg2d: Sum(rhs),rhsMax =  -1.17657011671240E+02  1.19011637934873E+00
(PID.TID 0000.0001)  ploadbar=  1.01067415606829E+05
 cg2d: Sum(rhs),rhsMax =  -1.18265399189856E+02  1.18387515583129E+00
(PID.TID 0000.0001)  ploadbar=  1.01067070673848E+05
 cg2d: Sum(rhs),rhsMax =  -1.18999902208182E+02  1.17646026800037E+00
(PID.TID 0000.0001)  ploadbar=  1.01066725740868E+05
 cg2d: Sum(rhs),rhsMax =  -1.19878938247914E+02  1.16773692829882E+00
(PID.TID 0000.0001)  ploadbar=  1.01066380807887E+05
 cg2d: Sum(rhs),rhsMax =  -1.20923942606997E+02  1.15755538827539E+00
(PID.TID 0000.0001)  ploadbar=  1.01066035874906E+05
 cg2d: Sum(rhs),rhsMax =  -1.22150953765668E+02  1.14583981429652E+00
(PID.TID 0000.0001)  ploadbar=  1.01065690941925E+05
 cg2d: Sum(rhs),rhsMax =  -1.19836130091353E+02  1.16789575053089E+00
(PID.TID 0000.0001)  ploadbar=  1.01065917913285E+05
 cg2d: Sum(rhs),rhsMax =  -1.17245049698537E+02  1.19362506724977E+00
(PID.TID 0000.0001)  ploadbar=  1.01066144884645E+05
 cg2d: Sum(rhs),rhsMax =  -1.14751335512358E+02  1.21947889332610E+00
(PID.TID 0000.0001)  ploadbar=  1.01066371856005E+05
 cg2d: Sum(rhs),rhsMax =  -1.12569429839016E+02  1.24302656433099E+00
(PID.TID 0000.0001)  ploadbar=  1.01066598827366E+05
 cg2d: Sum(rhs),rhsMax =  -1.11811791021710E+02  1.25135307970819E+00
(PID.TID 0000.0001)  ploadbar=  1.01066825798726E+05
 cg2d: Sum(rhs),rhsMax =  -1.11150539962362E+02  1.25867635966529E+00
(PID.TID 0000.0001)  ploadbar=  1.01067052770086E+05
 cg2d: Sum(rhs),rhsMax =  -1.10447471259576E+02  1.26656533989962E+00
(PID.TID 0000.0001)  ploadbar=  1.01066515449449E+05
 cg2d: Sum(rhs),rhsMax =  -1.09720393577729E+02  1.27482164822787E+00
(PID.TID 0000.0001)  ploadbar=  1.01065978128812E+05
 cg2d: Sum(rhs),rhsMax =  -1.08974098647454E+02  1.28339315503369E+00
(PID.TID 0000.0001)  ploadbar=  1.01065440808176E+05
 cg2d: Sum(rhs),rhsMax =  -1.08207957420708E+02  1.29229630912188E+00
(PID.TID 0000.0001)  ploadbar=  1.01064903487539E+05
 cg2d: Sum(rhs),rhsMax =  -1.07427854955704E+02  1.30147117955050E+00
(PID.TID 0000.0001)  ploadbar=  1.01064366166902E+05
 cg2d: Sum(rhs),rhsMax =  -1.06634822449171E+02  1.31091400908451E+00
(PID.TID 0000.0001)  ploadbar=  1.01063828846265E+05
 cg2d: Sum(rhs),rhsMax =  -1.05845749737850E+02  1.32050898908116E+00
(PID.TID 0000.0001)  ploadbar=  1.01062860813403E+05
 cg2d: Sum(rhs),rhsMax =  -1.05033680082737E+02  1.33057768490676E+00
(PID.TID 0000.0001)  ploadbar=  1.01061892780541E+05
 cg2d: Sum(rhs),rhsMax =  -1.03990857096052E+02  1.34380548986535E+00
(PID.TID 0000.0001)  ploadbar=  1.01060924747679E+05
 cg2d: Sum(rhs),rhsMax =  -1.03083686093398E+02  1.35554100353590E+00
(PID.TID 0000.0001)  ploadbar=  1.01059956714817E+05
 cg2d: Sum(rhs),rhsMax =  -1.02040095794012E+02  1.36933879822589E+00
(PID.TID 0000.0001)  ploadbar=  1.01058988681955E+05
 cg2d: Sum(rhs),rhsMax =  -1.01353568810380E+02  1.37857227044581E+00
(PID.TID 0000.0001)  ploadbar=  1.01058020649092E+05
 cg2d: Sum(rhs),rhsMax =  -1.00771157242700E+02  1.38649356955049E+00
(PID.TID 0000.0001)  ploadbar=  1.01056804770489E+05
 cg2d: Sum(rhs),rhsMax =  -1.00251433381700E+02  1.39362561163377E+00
(PID.TID 0000.0001)  ploadbar=  1.01055588891885E+05
 cg2d: Sum(rhs),rhsMax =  -9.97788364562683E+01  1.40016217838001E+00
(PID.TID 0000.0001)  ploadbar=  1.01054373013282E+05
 cg2d: Sum(rhs),rhsMax =  -9.93266621124191E+01  1.40645900429996E+00
(PID.TID 0000.0001)  ploadbar=  1.01053157134678E+05
 cg2d: Sum(rhs),rhsMax =  -9.88935615820583E+01  1.41252299051581E+00
(PID.TID 0000.0001)  ploadbar=  1.01051941256075E+05
 cg2d: Sum(rhs),rhsMax =  -9.84817729414004E+01  1.41831274314747E+00
(PID.TID 0000.0001)  ploadbar=  1.01050725377471E+05
 cg2d: Sum(rhs),rhsMax =  -9.81036012501007E+01  1.42369145777999E+00
(PID.TID 0000.0001)  ploadbar=  1.01050895725358E+05
 cg2d: Sum(rhs),rhsMax =  -9.77424004016412E+01  1.42888040548534E+00
(PID.TID 0000.0001)  ploadbar=  1.01051066073245E+05
 cg2d: Sum(rhs),rhsMax =  -9.74291910308443E+01  1.43341617620953E+00
(PID.TID 0000.0001)  ploadbar=  1.01051236421132E+05
 cg2d: Sum(rhs),rhsMax =  -9.71709987586827E+01  1.43717948178730E+00
(PID.TID 0000.0001)  ploadbar=  1.01051406769019E+05
 cg2d: Sum(rhs),rhsMax =  -9.69520147305899E+01  1.44038693215673E+00
(PID.TID 0000.0001)  ploadbar=  1.01051577116906E+05
 cg2d: Sum(rhs),rhsMax =  -9.68299520587345E+01  1.44215472022876E+00
(PID.TID 0000.0001)  ploadbar=  1.01051747464793E+05
 cg2d: Sum(rhs),rhsMax =  -9.69911050238816E+01  1.43969401707091E+00
(PID.TID 0000.0001)  ploadbar=  1.01051085321649E+05
 cg2d: Sum(rhs),rhsMax =  -9.74337821738194E+01  1.43305254129778E+00
(PID.TID 0000.0001)  ploadbar=  1.01050423178505E+05
 cg2d: Sum(rhs),rhsMax =  -9.81339929427316E+01  1.42268462014051E+00
(PID.TID 0000.0001)  ploadbar=  1.01049761035361E+05
 cg2d: Sum(rhs),rhsMax =  -9.90749829966318E+01  1.40898810846432E+00
(PID.TID 0000.0001)  ploadbar=  1.01049098892217E+05
 cg2d: Sum(rhs),rhsMax =  -1.00256141793081E+02  1.39216360511724E+00
(PID.TID 0000.0001)  ploadbar=  1.01048436749073E+05
 cg2d: Sum(rhs),rhsMax =  -1.01682086966976E+02  1.37237752771672E+00
(PID.TID 0000.0001)  ploadbar=  1.01047774605929E+05
 cg2d: Sum(rhs),rhsMax =  -1.03288317687235E+02  1.35084519950427E+00
(PID.TID 0000.0001)  ploadbar=  1.01046842045512E+05
 cg2d: Sum(rhs),rhsMax =  -1.05033148530811E+02  1.32825747042055E+00
(PID.TID 0000.0001)  ploadbar=  1.01045909485096E+05
 cg2d: Sum(rhs),rhsMax =  -1.06900194769202E+02  1.30494237164488E+00
(PID.TID 0000.0001)  ploadbar=  1.01044976924680E+05
 cg2d: Sum(rhs),rhsMax =  -1.08896219377377E+02  1.28093326934417E+00
(PID.TID 0000.0001)  ploadbar=  1.01044044364264E+05
 cg2d: Sum(rhs),rhsMax =  -1.11023424759147E+02  1.25632366526780E+00
(PID.TID 0000.0001)  ploadbar=  1.01043111803847E+05
 cg2d: Sum(rhs),rhsMax =  -1.13272028471290E+02  1.23133471810149E+00
(PID.TID 0000.0001)  ploadbar=  1.01042179243431E+05
 cg2d: Sum(rhs),rhsMax =  -1.15608359864568E+02  1.20640910698979E+00
(PID.TID 0000.0001)  ploadbar=  1.01042379809552E+05
 cg2d: Sum(rhs),rhsMax =  -1.18033591907883E+02  1.18158300549604E+00
(PID.TID 0000.0001)  ploadbar=  1.01042580375673E+05
 cg2d: Sum(rhs),rhsMax =  -1.20536721861486E+02  1.15700624661626E+00
(PID.TID 0000.0001)  ploadbar=  1.01042780941794E+05
 cg2d: Sum(rhs),rhsMax =  -1.23103963105060E+02  1.13283702868753E+00
(PID.TID 0000.0001)  ploadbar=  1.01042981507914E+05
 cg2d: Sum(rhs),rhsMax =  -1.25248625774300E+02  1.11339586983884E+00
(PID.TID 0000.0001)  ploadbar=  1.01043182074035E+05
 cg2d: Sum(rhs),rhsMax =  -1.25081408384216E+02  1.11482846117187E+00
(PID.TID 0000.0001)  ploadbar=  1.01043382640156E+05
 cg2d: Sum(rhs),rhsMax =  -1.24963337923767E+02  1.11584710745387E+00
(PID.TID 0000.0001)  ploadbar=  1.01043863461879E+05
 cg2d: Sum(rhs),rhsMax =  -1.24866739869215E+02  1.11668710440198E+00
(PID.TID 0000.0001)  ploadbar=  1.01044344283603E+05
 cg2d: Sum(rhs),rhsMax =  -1.24768550491574E+02  1.11755194319305E+00
(PID.TID 0000.0001)  ploadbar=  1.01044825105326E+05
 cg2d: Sum(rhs),rhsMax =  -1.24632843828393E+02  1.11876203549146E+00
(PID.TID 0000.0001)  ploadbar=  1.01045305927050E+05
 cg2d: Sum(rhs),rhsMax =  -1.24428622735576E+02  1.12058986526906E+00
(PID.TID 0000.0001)  ploadbar=  1.01045786748773E+05
 cg2d: Sum(rhs),rhsMax =  -1.24134263389001E+02  1.12322292425927E+00
(PID.TID 0000.0001)  ploadbar=  1.01046267570497E+05
 cg2d: Sum(rhs),rhsMax =  -1.23787228784441E+02  1.12634030202584E+00
(PID.TID 0000.0001)  ploadbar=  1.01045805334902E+05
 cg2d: Sum(rhs),rhsMax =  -1.23384787048705E+02  1.12996207543810E+00
(PID.TID 0000.0001)  ploadbar=  1.01045343099307E+05
 cg2d: Sum(rhs),rhsMax =  -1.22949007828473E+02  1.13388753165800E+00
(PID.TID 0000.0001)  ploadbar=  1.01044880863712E+05
 cg2d: Sum(rhs),rhsMax =  -1.22543257703090E+02  1.13753263987996E+00
(PID.TID 0000.0001)  ploadbar=  1.01044418628118E+05
 cg2d: Sum(rhs),rhsMax =  -1.22142776327202E+02  1.14112191929590E+00
(PID.TID 0000.0001)  ploadbar=  1.01043956392523E+05
 cg2d: Sum(rhs),rhsMax =  -1.21874957680788E+02  1.14345868608635E+00
(PID.TID 0000.0001)  ploadbar=  1.01043494156928E+05
 cg2d: Sum(rhs),rhsMax =  -1.21879381925775E+02  1.14332057962419E+00
(PID.TID 0000.0001)  ploadbar=  1.01043132874117E+05
 cg2d: Sum(rhs),rhsMax =  -1.21653964151439E+02  1.14539237094845E+00
(PID.TID 0000.0001)  ploadbar=  1.01042771591305E+05
 cg2d: Sum(rhs),rhsMax =  -1.21425922007883E+02  1.14752933239732E+00
(PID.TID 0000.0001)  ploadbar=  1.01042410308493E+05
 cg2d: Sum(rhs),rhsMax =  -1.21307205298740E+02  1.14866745313516E+00
(PID.TID 0000.0001)  ploadbar=  1.01042049025682E+05
 cg2d: Sum(rhs),rhsMax =  -1.21242993910795E+02  1.14932122642722E+00
(PID.TID 0000.0001)  ploadbar=  1.01041687742870E+05
 cg2d: Sum(rhs),rhsMax =  -1.21165528544246E+02  1.15012725240978E+00
(PID.TID 0000.0001)  ploadbar=  1.01041326460059E+05
 cg2d: Sum(rhs),rhsMax =  -1.20947042227092E+02  1.15227489687234E+00
(PID.TID 0000.0001)  ploadbar=  1.01040417344321E+05
 cg2d: Sum(rhs),rhsMax =  -1.20534138934307E+02  1.15628699977006E+00
(PID.TID 0000.0001)  ploadbar=  1.01039508228583E+05
 cg2d: Sum(rhs),rhsMax =  -1.19941876586732E+02  1.16205382354600E+00
(PID.TID 0000.0001)  ploadbar=  1.01038599112845E+05
 cg2d: Sum(rhs),rhsMax =  -1.19154181232511E+02  1.16978757535869E+00
(PID.TID 0000.0001)  ploadbar=  1.01037689997107E+05
 cg2d: Sum(rhs),rhsMax =  -1.18196607198703E+02  1.17930881934048E+00
(PID.TID 0000.0001)  ploadbar=  1.01036780881369E+05
 cg2d: Sum(rhs),rhsMax =  -1.17113985435742E+02  1.19023880764394E+00
(PID.TID 0000.0001)  ploadbar=  1.01035871765631E+05
 cg2d: Sum(rhs),rhsMax =  -1.15832461712915E+02  1.20344180436312E+00
(PID.TID 0000.0001)  ploadbar=  1.01036080816239E+05
 cg2d: Sum(rhs),rhsMax =  -1.14534490400493E+02  1.21710826684088E+00
(PID.TID 0000.0001)  ploadbar=  1.01036289866848E+05
 cg2d: Sum(rhs),rhsMax =  -1.13284164901281E+02  1.23056139796067E+00
(PID.TID 0000.0001)  ploadbar=  1.01036498917457E+05
 cg2d: Sum(rhs),rhsMax =  -1.12151032143571E+02  1.24300085078304E+00
(PID.TID 0000.0001)  ploadbar=  1.01036707968065E+05
 cg2d: Sum(rhs),rhsMax =  -1.11166312892637E+02  1.25399860551956E+00
(PID.TID 0000.0001)  ploadbar=  1.01036917018674E+05
 cg2d: Sum(rhs),rhsMax =  -1.10340860793619E+02  1.26333746268515E+00
(PID.TID 0000.0001)  ploadbar=  1.01037126069282E+05
 cg2d: Sum(rhs),rhsMax =  -1.09684155875158E+02  1.27085633958050E+00
(PID.TID 0000.0001)  ploadbar=  1.01036922753219E+05
 cg2d: Sum(rhs),rhsMax =  -1.09146869867111E+02  1.27705132039162E+00
(PID.TID 0000.0001)  ploadbar=  1.01036719437157E+05
 cg2d: Sum(rhs),rhsMax =  -1.08677316261758E+02  1.28248589274171E+00
(PID.TID 0000.0001)  ploadbar=  1.01036516121094E+05
 cg2d: Sum(rhs),rhsMax =  -1.08275373544513E+02  1.28713817130925E+00
(PID.TID 0000.0001)  ploadbar=  1.01036312805031E+05
 cg2d: Sum(rhs),rhsMax =  -1.08001245914595E+02  1.29026868916080E+00
(PID.TID 0000.0001)  ploadbar=  1.01036109488968E+05
 cg2d: Sum(rhs),rhsMax =  -1.07847497311280E+02  1.29194795020849E+00
(PID.TID 0000.0001)  ploadbar=  1.01035906172906E+05
 cg2d: Sum(rhs),rhsMax =  -1.07594514532513E+02  1.29489584108083E+00
(PID.TID 0000.0001)  ploadbar=  1.01036618913281E+05
 cg2d: Sum(rhs),rhsMax =  -1.07289675739315E+02  1.29853292804853E+00
(PID.TID 0000.0001)  ploadbar=  1.01037331653657E+05
 cg2d: Sum(rhs),rhsMax =  -1.06981609098812E+02  1.30226030812419E+00
(PID.TID 0000.0001)  ploadbar=  1.01038044394032E+05
 cg2d: Sum(rhs),rhsMax =  -1.06697319710386E+02  1.30574455182657E+00
(PID.TID 0000.0001)  ploadbar=  1.01038757134408E+05
 cg2d: Sum(rhs),rhsMax =  -1.06443393490215E+02  1.30890105181493E+00
(PID.TID 0000.0001)  ploadbar=  1.01039469874783E+05
 cg2d: Sum(rhs),rhsMax =  -1.06282394503553E+02  1.31095228847813E+00
(PID.TID 0000.0001)  ploadbar=  1.01040182615159E+05
 cg2d: Sum(rhs),rhsMax =  -1.06274190125870E+02  1.31111500535748E+00
(PID.TID 0000.0001)  ploadbar=  1.01040264423601E+05
 cg2d: Sum(rhs),rhsMax =  -1.06356145175755E+02  1.31014964831127E+00
(PID.TID 0000.0001)  ploadbar=  1.01040346232043E+05
 cg2d: Sum(rhs),rhsMax =  -1.06513256089623E+02  1.30824526735231E+00
(PID.TID 0000.0001)  ploadbar=  1.01040428040485E+05
 cg2d: Sum(rhs),rhsMax =  -1.06725019988660E+02  1.30565924851621E+00
(PID.TID 0000.0001)  ploadbar=  1.01040509848927E+05
 cg2d: Sum(rhs),rhsMax =  -1.07074139852271E+02  1.30138997021258E+00
(PID.TID 0000.0001)  ploadbar=  1.01040591657369E+05
 cg2d: Sum(rhs),rhsMax =  -1.07554787723927E+02  1.29553086194802E+00
(PID.TID 0000.0001)  ploadbar=  1.01040673465811E+05
 cg2d: Sum(rhs),rhsMax =  -1.08034102599163E+02  1.28973720866208E+00
(PID.TID 0000.0001)  ploadbar=  1.01041585981252E+05
 cg2d: Sum(rhs),rhsMax =  -1.08512349055945E+02  1.28399404594634E+00
(PID.TID 0000.0001)  ploadbar=  1.01042498496693E+05
 cg2d: Sum(rhs),rhsMax =  -1.08980705169962E+02  1.27840497898518E+00
(PID.TID 0000.0001)  ploadbar=  1.01043411012134E+05
 cg2d: Sum(rhs),rhsMax =  -1.09434632806655E+02  1.27302255770729E+00
(PID.TID 0000.0001)  ploadbar=  1.01044323527575E+05
 cg2d: Sum(rhs),rhsMax =  -1.09872521807956E+02  1.26785684738504E+00
(PID.TID 0000.0001)  ploadbar=  1.01045236043016E+05
 cg2d: Sum(rhs),rhsMax =  -1.10294768469963E+02  1.26289080794594E+00
(PID.TID 0000.0001)  ploadbar=  1.01046148558458E+05
 cg2d: Sum(rhs),rhsMax =  -1.10682450612465E+02  1.25834208555500E+00
(PID.TID 0000.0001)  ploadbar=  1.01046454642047E+05
 cg2d: Sum(rhs),rhsMax =  -1.11060633339578E+02  1.25390651561928E+00
(PID.TID 0000.0001)  ploadbar=  1.01046760725636E+05
 cg2d: Sum(rhs),rhsMax =  -1.11536823390090E+02  1.24837502445302E+00
(PID.TID 0000.0001)  ploadbar=  1.01047066809225E+05
 cg2d: Sum(rhs),rhsMax =  -1.12137739160189E+02  1.24147508858730E+00
(PID.TID 0000.0001)  ploadbar=  1.01047372892815E+05
 cg2d: Sum(rhs),rhsMax =  -1.12867992543534E+02  1.23319790003099E+00
(PID.TID 0000.0001)  ploadbar=  1.01047678976404E+05
 cg2d: Sum(rhs),rhsMax =  -1.13730300688312E+02  1.22356866174366E+00
(PID.TID 0000.0001)  ploadbar=  1.01047985059993E+05
 cg2d: Sum(rhs),rhsMax =  -1.14558982258157E+02  1.21450202755709E+00
(PID.TID 0000.0001)  ploadbar=  1.01048631539130E+05
 cg2d: Sum(rhs),rhsMax =  -1.15339950386491E+02  1.20610831937877E+00
(PID.TID 0000.0001)  ploadbar=  1.01049278018267E+05
 cg2d: Sum(rhs),rhsMax =  -1.14967453743510E+02  1.20988067091421E+00
(PID.TID 0000.0001)  ploadbar=  1.01049924497404E+05
 cg2d: Sum(rhs),rhsMax =  -1.15479213156108E+02  1.20441815499207E+00
(PID.TID 0000.0001)  ploadbar=  1.01050570976541E+05
 cg2d: Sum(rhs),rhsMax =  -1.16522797089729E+02  1.19356475320212E+00
(PID.TID 0000.0001)  ploadbar=  1.01051217455678E+05
 cg2d: Sum(rhs),rhsMax =  -1.16006663122736E+02  1.19883777538473E+00
(PID.TID 0000.0001)  ploadbar=  1.01051863934815E+05
 cg2d: Sum(rhs),rhsMax =  -1.15627916448212E+02  1.20275108594675E+00
(PID.TID 0000.0001)  ploadbar=  1.01052582578949E+05
 cg2d: Sum(rhs),rhsMax =  -1.15404995793082E+02  1.20506961549370E+00
(PID.TID 0000.0001)  ploadbar=  1.01053301223084E+05
 cg2d: Sum(rhs),rhsMax =  -1.15343714221030E+02  1.20571280172872E+00
(PID.TID 0000.0001)  ploadbar=  1.01054019867219E+05
 cg2d: Sum(rhs),rhsMax =  -1.15442522175866E+02  1.20468877969303E+00
(PID.TID 0000.0001)  ploadbar=  1.01054738511354E+05
 cg2d: Sum(rhs),rhsMax =  -1.15680624232594E+02  1.20221735875609E+00
(PID.TID 0000.0001)  ploadbar=  1.01055457155489E+05
 cg2d: Sum(rhs),rhsMax =  -1.16046283116980E+02  1.19843621738672E+00
(PID.TID 0000.0001)  ploadbar=  1.01056175799623E+05
 cg2d: Sum(rhs),rhsMax =  -1.16526616426652E+02  1.19350758861377E+00
(PID.TID 0000.0001)  ploadbar=  1.01056132929998E+05
 cg2d: Sum(rhs),rhsMax =  -1.17057417138452E+02  1.18810346439875E+00
(PID.TID 0000.0001)  ploadbar=  1.01056090060374E+05
 cg2d: Sum(rhs),rhsMax =  -1.17637227993031E+02  1.18225312999733E+00
(PID.TID 0000.0001)  ploadbar=  1.01056047190749E+05
 cg2d: Sum(rhs),rhsMax =  -1.18253262418048E+02  1.17609960884839E+00
(PID.TID 0000.0001)  ploadbar=  1.01056004321124E+05
 cg2d: Sum(rhs),rhsMax =  -1.18664529696482E+02  1.17202823431324E+00
(PID.TID 0000.0001)  ploadbar=  1.01055961451499E+05
 cg2d: Sum(rhs),rhsMax =  -1.19121978912608E+02  1.16751841093882E+00
(PID.TID 0000.0001)  ploadbar=  1.01055918581874E+05
 cg2d: Sum(rhs),rhsMax =  -1.19601997167747E+02  1.16279572813787E+00
(PID.TID 0000.0001)  ploadbar=  1.01055445224146E+05
 cg2d: Sum(rhs),rhsMax =  -1.20103127301114E+02  1.15786739636421E+00
(PID.TID 0000.0001)  ploadbar=  1.01054971866419E+05
 cg2d: Sum(rhs),rhsMax =  -1.20628886319517E+02  1.15269969071312E+00
(PID.TID 0000.0001)  ploadbar=  1.01054498508691E+05
 cg2d: Sum(rhs),rhsMax =  -1.21195839402546E+02  1.14713678225179E+00
(PID.TID 0000.0001)  ploadbar=  1.01054025150963E+05
 cg2d: Sum(rhs),rhsMax =  -1.21788295034207E+02  1.14133504071175E+00
(PID.TID 0000.0001)  ploadbar=  1.01053551793236E+05
 cg2d: Sum(rhs),rhsMax =  -1.22385646862549E+02  1.13549229719861E+00
(PID.TID 0000.0001)  ploadbar=  1.01053078435508E+05
 cg2d: Sum(rhs),rhsMax =  -1.23074367265437E+02  1.12891453574936E+00
(PID.TID 0000.0001)  ploadbar=  1.01053642942400E+05
 cg2d: Sum(rhs),rhsMax =  -1.23837814373649E+02  1.12176107431164E+00
(PID.TID 0000.0001)  ploadbar=  1.01054207449292E+05
 cg2d: Sum(rhs),rhsMax =  -1.24707147988651E+02  1.11376928005890E+00
(PID.TID 0000.0001)  ploadbar=  1.01054771956185E+05
 cg2d: Sum(rhs),rhsMax =  -1.25702992804302E+02  1.10479374025551E+00
(PID.TID 0000.0001)  ploadbar=  1.01055336463077E+05
 cg2d: Sum(rhs),rhsMax =  -1.26850108507684E+02  1.09466915434507E+00
(PID.TID 0000.0001)  ploadbar=  1.01055900969969E+05
 cg2d: Sum(rhs),rhsMax =  -1.28174444592271E+02  1.08324151538454E+00
(PID.TID 0000.0001)  ploadbar=  1.01056465476861E+05
 cg2d: Sum(rhs),rhsMax =  -1.29684032157634E+02  1.07053184569817E+00
(PID.TID 0000.0001)  ploadbar=  1.01056323533534E+05
 cg2d: Sum(rhs),rhsMax =  -1.31275932702296E+02  1.05745683564222E+00
(PID.TID 0000.0001)  ploadbar=  1.01056181590206E+05
 cg2d: Sum(rhs),rhsMax =  -1.32871857712198E+02  1.04467107195011E+00
(PID.TID 0000.0001)  ploadbar=  1.01056039646879E+05
 cg2d: Sum(rhs),rhsMax =  -1.34407687273705E+02  1.03265637252499E+00
(PID.TID 0000.0001)  ploadbar=  1.01055897703552E+05
 cg2d: Sum(rhs),rhsMax =  -1.35807443306607E+02  1.02194230856754E+00
(PID.TID 0000.0001)  ploadbar=  1.01055755760224E+05
 cg2d: Sum(rhs),rhsMax =  -1.37017598019415E+02  1.01285107691071E+00
(PID.TID 0000.0001)  ploadbar=  1.01055613816897E+05
 cg2d: Sum(rhs),rhsMax =  -1.38083015789807E+02  1.00498730431639E+00
(PID.TID 0000.0001)  ploadbar=  1.01056246452686E+05
 cg2d: Sum(rhs),rhsMax =  -1.38934930529343E+02  9.98785372868656E-01
(PID.TID 0000.0001)  ploadbar=  1.01056879088474E+05
 cg2d: Sum(rhs),rhsMax =  -1.39543130432602E+02  9.94403998323224E-01
(PID.TID 0000.0001)  ploadbar=  1.01057511724263E+05
 cg2d: Sum(rhs),rhsMax =  -1.39965032111438E+02  9.91389605755808E-01
(PID.TID 0000.0001)  ploadbar=  1.01058144360051E+05
 cg2d: Sum(rhs),rhsMax =  -1.40257217576818E+02  9.89315222474312E-01
(PID.TID 0000.0001)  ploadbar=  1.01058776995840E+05
 cg2d: Sum(rhs),rhsMax =  -1.40409128500980E+02  9.88234858576278E-01
(PID.TID 0000.0001)  ploadbar=  1.01059409631628E+05
 cg2d: Sum(rhs),rhsMax =  -1.40547388107608E+02  9.87243185372322E-01
(PID.TID 0000.0001)  ploadbar=  1.01058252609993E+05
 cg2d: Sum(rhs),rhsMax =  -1.40718177146416E+02  9.86004500299013E-01
(PID.TID 0000.0001)  ploadbar=  1.01057095588358E+05
 cg2d: Sum(rhs),rhsMax =  -1.40966534287307E+02  9.84200359712526E-01
(PID.TID 0000.0001)  ploadbar=  1.01055938566723E+05
 cg2d: Sum(rhs),rhsMax =  -1.40031790581005E+02  9.90670549848043E-01
(PID.TID 0000.0001)  ploadbar=  1.01054781545087E+05
 cg2d: Sum(rhs),rhsMax =  -1.38805514089368E+02  9.99289662781788E-01
(PID.TID 0000.0001)  ploadbar=  1.01053624523452E+05
 cg2d: Sum(rhs),rhsMax =  -1.37749469592348E+02  1.00678447350010E+00
(PID.TID 0000.0001)  ploadbar=  1.01052467501817E+05
 cg2d: Sum(rhs),rhsMax =  -1.36836406200222E+02  1.01338137361899E+00
(PID.TID 0000.0001)  ploadbar=  1.01052208954381E+05
 cg2d: Sum(rhs),rhsMax =  -1.35978686991827E+02  1.01968023374801E+00
(PID.TID 0000.0001)  ploadbar=  1.01051950406944E+05
 cg2d: Sum(rhs),rhsMax =  -1.35163556071822E+02  1.02575638872736E+00
(PID.TID 0000.0001)  ploadbar=  1.01051691859508E+05
 cg2d: Sum(rhs),rhsMax =  -1.34397676061411E+02  1.03154749841855E+00
(PID.TID 0000.0001)  ploadbar=  1.01051433312072E+05
 cg2d: Sum(rhs),rhsMax =  -1.33692189493622E+02  1.03695302755738E+00
(PID.TID 0000.0001)  ploadbar=  1.01051174764635E+05
 cg2d: Sum(rhs),rhsMax =  -1.33058195695584E+02  1.04187520869225E+00
(PID.TID 0000.0001)  ploadbar=  1.01050916217199E+05
 cg2d: Sum(rhs),rhsMax =  -1.32345655519844E+02  1.04746147523107E+00
(PID.TID 0000.0001)  ploadbar=  1.01049009407789E+05
 cg2d: Sum(rhs),rhsMax =  -1.31690927897271E+02  1.05262805709712E+00
(PID.TID 0000.0001)  ploadbar=  1.01047102598380E+05
 cg2d: Sum(rhs),rhsMax =  -1.31089710715775E+02  1.05739649521418E+00
(PID.TID 0000.0001)  ploadbar=  1.01045195788970E+05
 cg2d: Sum(rhs),rhsMax =  -1.30531850153359E+02  1.06183879338218E+00
(PID.TID 0000.0001)  ploadbar=  1.01043288979560E+05
 cg2d: Sum(rhs),rhsMax =  -1.30005492159051E+02  1.06604572413182E+00
(PID.TID 0000.0001)  ploadbar=  1.01041382170151E+05
 cg2d: Sum(rhs),rhsMax =  -1.29495637607150E+02  1.07013048746282E+00
(PID.TID 0000.0001)  ploadbar=  1.01039475360741E+05
 cg2d: Sum(rhs),rhsMax =  -1.28960169153986E+02  1.07447241369051E+00
(PID.TID 0000.0001)  ploadbar=  1.01037809244421E+05
 cg2d: Sum(rhs),rhsMax =  -1.28371743425019E+02  1.07930260511392E+00
(PID.TID 0000.0001)  ploadbar=  1.01036143128102E+05
 cg2d: Sum(rhs),rhsMax =  -1.27581075169951E+02  1.08590518824006E+00
(PID.TID 0000.0001)  ploadbar=  1.01034477011782E+05
 cg2d: Sum(rhs),rhsMax =  -1.26618834233188E+02  1.09407957094141E+00
(PID.TID 0000.0001)  ploadbar=  1.01032810895462E+05
 cg2d: Sum(rhs),rhsMax =  -1.26611320057994E+02  1.09406809296663E+00
(PID.TID 0000.0001)  ploadbar=  1.01031144779143E+05
 cg2d: Sum(rhs),rhsMax =  -1.26614903170908E+02  1.09394939019197E+00
(PID.TID 0000.0001)  ploadbar=  1.01029478662823E+05
 cg2d: Sum(rhs),rhsMax =  -1.25751569209730E+02  1.10135912880425E+00
(PID.TID 0000.0001)  ploadbar=  1.01028370399071E+05
 cg2d: Sum(rhs),rhsMax =  -1.24950521113940E+02  1.10829738888327E+00
(PID.TID 0000.0001)  ploadbar=  1.01027262135319E+05
 cg2d: Sum(rhs),rhsMax =  -1.24219352984897E+02  1.11467063158799E+00
(PID.TID 0000.0001)  ploadbar=  1.01026153871567E+05
 cg2d: Sum(rhs),rhsMax =  -1.23553197261243E+02  1.12049769125153E+00
(PID.TID 0000.0001)  ploadbar=  1.01025045607815E+05
 cg2d: Sum(rhs),rhsMax =  -1.23145241600045E+02  1.12399153873244E+00
(PID.TID 0000.0001)  ploadbar=  1.01023937344063E+05
 cg2d: Sum(rhs),rhsMax =  -1.22984734565056E+02  1.12520531444770E+00
(PID.TID 0000.0001)  ploadbar=  1.01022829080311E+05
 cg2d: Sum(rhs),rhsMax =  -1.22931091121917E+02  1.12549044190789E+00
(PID.TID 0000.0001)  ploadbar=  1.01021673389524E+05
 cg2d: Sum(rhs),rhsMax =  -1.23027487579404E+02  1.12442940127014E+00
(PID.TID 0000.0001)  ploadbar=  1.01020517698738E+05
 cg2d: Sum(rhs),rhsMax =  -1.23287330106652E+02  1.12189674212590E+00
(PID.TID 0000.0001)  ploadbar=  1.01019362007952E+05
 cg2d: Sum(rhs),rhsMax =  -1.23699311367359E+02  1.11801391478719E+00
(PID.TID 0000.0001)  ploadbar=  1.01018206317166E+05
 cg2d: Sum(rhs),rhsMax =  -1.24234620905578E+02  1.11306752848896E+00
(PID.TID 0000.0001)  ploadbar=  1.01017050626379E+05
 cg2d: Sum(rhs),rhsMax =  -1.24851642107097E+02  1.10746080385892E+00
(PID.TID 0000.0001)  ploadbar=  1.01015894935593E+05
 cg2d: Sum(rhs),rhsMax =  -1.25515409605375E+02  1.10150981243036E+00
(PID.TID 0000.0001)  ploadbar=  1.01015263631565E+05
 cg2d: Sum(rhs),rhsMax =  -1.25439714273506E+02  1.10207532132890E+00
(PID.TID 0000.0001)  ploadbar=  1.01014632327536E+05
 cg2d: Sum(rhs),rhsMax =  -1.25109864322565E+02  1.10487459149396E+00
(PID.TID 0000.0001)  ploadbar=  1.01014001023508E+05
 cg2d: Sum(rhs),rhsMax =  -1.24876947167506E+02  1.10682294517646E+00
(PID.TID 0000.0001)  ploadbar=  1.01013369719479E+05
 cg2d: Sum(rhs),rhsMax =  -1.24678768131179E+02  1.10846987377463E+00
(PID.TID 0000.0001)  ploadbar=  1.01012738415451E+05
 cg2d: Sum(rhs),rhsMax =  -1.24626641465478E+02  1.10881785459421E+00
(PID.TID 0000.0001)  ploadbar=  1.01012107111422E+05
 cg2d: Sum(rhs),rhsMax =  -1.24540015294726E+02  1.10948313391381E+00
(PID.TID 0000.0001)  ploadbar=  1.01012453831508E+05
 cg2d: Sum(rhs),rhsMax =  -1.24411442297609E+02  1.11052514679620E+00
(PID.TID 0000.0001)  ploadbar=  1.01012800551594E+05
 cg2d: Sum(rhs),rhsMax =  -1.24225792137850E+02  1.11208359224135E+00
(PID.TID 0000.0001)  ploadbar=  1.01013147271680E+05
 cg2d: Sum(rhs),rhsMax =  -1.23992333147538E+02  1.11408144495024E+00
(PID.TID 0000.0001)  ploadbar=  1.01013493991766E+05
 cg2d: Sum(rhs),rhsMax =  -1.23730568790816E+02  1.11634119618572E+00
(PID.TID 0000.0001)  ploadbar=  1.01013840711852E+05
 cg2d: Sum(rhs),rhsMax =  -1.23471932892934E+02  1.11856869194890E+00
(PID.TID 0000.0001)  ploadbar=  1.01014187431937E+05
 cg2d: Sum(rhs),rhsMax =  -1.23396761793371E+02  1.11914704956066E+00
(PID.TID 0000.0001)  ploadbar=  1.01013760089539E+05
 cg2d: Sum(rhs),rhsMax =  -1.23329513315359E+02  1.11965369826335E+00
(PID.TID 0000.0001)  ploadbar=  1.01013332747141E+05
 cg2d: Sum(rhs),rhsMax =  -1.23258458136948E+02  1.12018898350641E+00
(PID.TID 0000.0001)  ploadbar=  1.01012905404742E+05
 cg2d: Sum(rhs),rhsMax =  -1.23210791339943E+02  1.12050107690383E+00
(PID.TID 0000.0001)  ploadbar=  1.01012478062344E+05
 cg2d: Sum(rhs),rhsMax =  -1.23243698328202E+02  1.12006593943666E+00
(PID.TID 0000.0001)  ploadbar=  1.01012050719945E+05
 cg2d: Sum(rhs),rhsMax =  -1.23377454210787E+02  1.11870076005620E+00
(PID.TID 0000.0001)  ploadbar=  1.01011623377547E+05
 cg2d: Sum(rhs),rhsMax =  -1.23548246900730E+02  1.11705702618177E+00
(PID.TID 0000.0001)  ploadbar=  1.01011018917170E+05
 cg2d: Sum(rhs),rhsMax =  -1.23783112719862E+02  1.11487059272062E+00
(PID.TID 0000.0001)  ploadbar=  1.01010414456793E+05
 cg2d: Sum(rhs),rhsMax =  -1.24098915658802E+02  1.11198423406241E+00
(PID.TID 0000.0001)  ploadbar=  1.01009809996416E+05
 cg2d: Sum(rhs),rhsMax =  -1.24512316776310E+02  1.10826356974868E+00
(PID.TID 0000.0001)  ploadbar=  1.01009205536039E+05
 cg2d: Sum(rhs),rhsMax =  -1.24509181154770E+02  1.10828420738442E+00
(PID.TID 0000.0001)  ploadbar=  1.01008601075662E+05
 cg2d: Sum(rhs),rhsMax =  -1.23797306407277E+02  1.11467362993266E+00
(PID.TID 0000.0001)  ploadbar=  1.01007996615285E+05
 cg2d: Sum(rhs),rhsMax =  -1.23052469351696E+02  1.12143975035463E+00
(PID.TID 0000.0001)  ploadbar=  1.01007217889016E+05
 cg2d: Sum(rhs),rhsMax =  -1.22377308959834E+02  1.12763659321579E+00
(PID.TID 0000.0001)  ploadbar=  1.01006439162746E+05
 cg2d: Sum(rhs),rhsMax =  -1.21781556684309E+02  1.13315106090626E+00
(PID.TID 0000.0001)  ploadbar=  1.01005660436477E+05
 cg2d: Sum(rhs),rhsMax =  -1.21261673351840E+02  1.13799457473440E+00
(PID.TID 0000.0001)  ploadbar=  1.01004881710208E+05
 cg2d: Sum(rhs),rhsMax =  -1.20780491908519E+02  1.14249713923833E+00
(PID.TID 0000.0001)  ploadbar=  1.01004102983939E+05
 cg2d: Sum(rhs),rhsMax =  -1.20248831429028E+02  1.14749386830099E+00
(PID.TID 0000.0001)  ploadbar=  1.01003324257669E+05
 cg2d: Sum(rhs),rhsMax =  -1.19768588063965E+02  1.15204907645042E+00
(PID.TID 0000.0001)  ploadbar=  1.01002906949403E+05
 cg2d: Sum(rhs),rhsMax =  -1.19221235882385E+02  1.15729702073893E+00
(PID.TID 0000.0001)  ploadbar=  1.01002489641137E+05
 cg2d: Sum(rhs),rhsMax =  -1.18540347909191E+02  1.16391227147364E+00
(PID.TID 0000.0001)  ploadbar=  1.01002072332871E+05
 cg2d: Sum(rhs),rhsMax =  -1.17713204495053E+02  1.17206793056127E+00
(PID.TID 0000.0001)  ploadbar=  1.01001655024605E+05
 cg2d: Sum(rhs),rhsMax =  -1.16870674305123E+02  1.18050009881951E+00
(PID.TID 0000.0001)  ploadbar=  1.01001237716339E+05
 cg2d: Sum(rhs),rhsMax =  -1.16013385695734E+02  1.18919783054521E+00
(PID.TID 0000.0001)  ploadbar=  1.01000820408073E+05
 cg2d: Sum(rhs),rhsMax =  -1.15088292800354E+02  1.19872593197267E+00
(PID.TID 0000.0001)  ploadbar=  1.01000380218780E+05
 cg2d: Sum(rhs),rhsMax =  -1.14179296558721E+02  1.20822123897110E+00
(PID.TID 0000.0001)  ploadbar=  1.00999940029486E+05
 cg2d: Sum(rhs),rhsMax =  -1.13918192854676E+02  1.21091981614347E+00
(PID.TID 0000.0001)  ploadbar=  1.00999499840192E+05
 cg2d: Sum(rhs),rhsMax =  -1.14932551257125E+02  1.20013713242976E+00
(PID.TID 0000.0001)  ploadbar=  1.00999059650898E+05
 cg2d: Sum(rhs),rhsMax =  -1.14565291692431E+02  1.20386090453039E+00
(PID.TID 0000.0001)  ploadbar=  1.00998619461604E+05
 cg2d: Sum(rhs),rhsMax =  -1.13565512926942E+02  1.21430807320283E+00
(PID.TID 0000.0001)  ploadbar=  1.00998179272311E+05
 cg2d: Sum(rhs),rhsMax =  -1.12615259295566E+02  1.22445617167037E+00
(PID.TID 0000.0001)  ploadbar=  1.00997429241027E+05
 cg2d: Sum(rhs),rhsMax =  -1.11636462134958E+02  1.23512564685905E+00
(PID.TID 0000.0001)  ploadbar=  1.00996679209743E+05
 cg2d: Sum(rhs),rhsMax =  -1.11152794278538E+02  1.24045800668046E+00
(PID.TID 0000.0001)  ploadbar=  1.00995929178459E+05
 cg2d: Sum(rhs),rhsMax =  -1.11406084126965E+02  1.23761971104074E+00
(PID.TID 0000.0001)  ploadbar=  1.00995179147176E+05
 cg2d: Sum(rhs),rhsMax =  -1.11637242481306E+02  1.23506555675744E+00
(PID.TID 0000.0001)  ploadbar=  1.00994429115892E+05
 cg2d: Sum(rhs),rhsMax =  -1.11850327682745E+02  1.23274704888957E+00
(PID.TID 0000.0001)  ploadbar=  1.00993679084608E+05
 cg2d: Sum(rhs),rhsMax =  -1.12066006135982E+02  1.23041309181883E+00
(PID.TID 0000.0001)  ploadbar=  1.00992390280835E+05
 cg2d: Sum(rhs),rhsMax =  -1.12303796537591E+02  1.22783888271003E+00
(PID.TID 0000.0001)  ploadbar=  1.00991101477061E+05
 cg2d: Sum(rhs),rhsMax =  -1.12397786481846E+02  1.22683344139246E+00
(PID.TID 0000.0001)  ploadbar=  1.00989812673288E+05
 cg2d: Sum(rhs),rhsMax =  -1.11820246134848E+02  1.23317927013985E+00
(PID.TID 0000.0001)  ploadbar=  1.00988523869515E+05
 cg2d: Sum(rhs),rhsMax =  -1.11376943469590E+02  1.23808792838780E+00
(PID.TID 0000.0001)  ploadbar=  1.00987235065741E+05
 cg2d: Sum(rhs),rhsMax =  -1.11020370173070E+02  1.24205179278327E+00
(PID.TID 0000.0001)  ploadbar=  1.00985946261968E+05
 cg2d: Sum(rhs),rhsMax =  -1.10702097039812E+02  1.24561533622832E+00
(PID.TID 0000.0001)  ploadbar=  1.00985760661640E+05
 cg2d: Sum(rhs),rhsMax =  -1.10363372340634E+02  1.24942701350615E+00
(PID.TID 0000.0001)  ploadbar=  1.00985575061313E+05
 cg2d: Sum(rhs),rhsMax =  -1.09951737235990E+02  1.25408860898174E+00
(PID.TID 0000.0001)  ploadbar=  1.00985389460985E+05
 cg2d: Sum(rhs),rhsMax =  -1.09454124924343E+02  1.25977079995093E+00
(PID.TID 0000.0001)  ploadbar=  1.00985203860658E+05
 cg2d: Sum(rhs),rhsMax =  -1.08894398140466E+02  1.26621694698286E+00
(PID.TID 0000.0001)  ploadbar=  1.00985018260330E+05
 cg2d: Sum(rhs),rhsMax =  -1.08310649537494E+02  1.27298909005825E+00
(PID.TID 0000.0001)  ploadbar=  1.00984832660003E+05
 cg2d: Sum(rhs),rhsMax =  -1.07713243985825E+02  1.27999631261588E+00
(PID.TID 0000.0001)  ploadbar=  1.00985015638335E+05
 cg2d: Sum(rhs),rhsMax =  -1.07149711790671E+02  1.28666250264118E+00
(PID.TID 0000.0001)  ploadbar=  1.00985198616667E+05
 cg2d: Sum(rhs),rhsMax =  -1.06660283539310E+02  1.29248110152980E+00
(PID.TID 0000.0001)  ploadbar=  1.00985381594998E+05
 cg2d: Sum(rhs),rhsMax =  -1.06267497248393E+02  1.29714674759493E+00
(PID.TID 0000.0001)  ploadbar=  1.00985564573330E+05
 cg2d: Sum(rhs),rhsMax =  -1.05969620234727E+02  1.30065253936099E+00
(PID.TID 0000.0001)  ploadbar=  1.00985747551662E+05
 cg2d: Sum(rhs),rhsMax =  -1.05763470674179E+02  1.30301654346031E+00
(PID.TID 0000.0001)  ploadbar=  1.00985930529994E+05
 cg2d: Sum(rhs),rhsMax =  -1.05571907736759E+02  1.30526858070974E+00
(PID.TID 0000.0001)  ploadbar=  1.00988615966424E+05
 cg2d: Sum(rhs),rhsMax =  -1.05361844347130E+02  1.30779938058412E+00
(PID.TID 0000.0001)  ploadbar=  1.00991301402855E+05
 cg2d: Sum(rhs),rhsMax =  -1.05098447562490E+02  1.31104000316231E+00
(PID.TID 0000.0001)  ploadbar=  1.00993986839285E+05
 cg2d: Sum(rhs),rhsMax =  -1.04759510159096E+02  1.31527701230842E+00
(PID.TID 0000.0001)  ploadbar=  1.00996672275715E+05
 cg2d: Sum(rhs),rhsMax =  -1.04345857144038E+02  1.32051019279030E+00
(PID.TID 0000.0001)  ploadbar=  1.00999357712146E+05
 cg2d: Sum(rhs),rhsMax =  -1.03879792211084E+02  1.32647674020390E+00
(PID.TID 0000.0001)  ploadbar=  1.01002043148576E+05
 cg2d: Sum(rhs),rhsMax =  -1.03505969212348E+02  1.33129887316560E+00
(PID.TID 0000.0001)  ploadbar=  1.01003057525310E+05
 cg2d: Sum(rhs),rhsMax =  -1.03546702686342E+02  1.33078396336974E+00
(PID.TID 0000.0001)  ploadbar=  1.01004071902044E+05
 cg2d: Sum(rhs),rhsMax =  -1.03638937807644E+02  1.32958728551412E+00
(PID.TID 0000.0001)  ploadbar=  1.01005086278778E+05
 cg2d: Sum(rhs),rhsMax =  -1.03762660442863E+02  1.32796641508865E+00
(PID.TID 0000.0001)  ploadbar=  1.01006100655512E+05
 cg2d: Sum(rhs),rhsMax =  -1.03922182941968E+02  1.32586973139148E+00
(PID.TID 0000.0001)  ploadbar=  1.01007115032245E+05
 cg2d: Sum(rhs),rhsMax =  -1.04125694761331E+02  1.32318867187208E+00
(PID.TID 0000.0001)  ploadbar=  1.01008129408979E+05
 cg2d: Sum(rhs),rhsMax =  -1.04382198158975E+02  1.31987921427033E+00
(PID.TID 0000.0001)  ploadbar=  1.01008252946371E+05
 cg2d: Sum(rhs),rhsMax =  -1.04680705112168E+02  1.31608073212380E+00
(PID.TID 0000.0001)  ploadbar=  1.01008376483763E+05
 cg2d: Sum(rhs),rhsMax =  -1.05007705574483E+02  1.31196858302821E+00
(PID.TID 0000.0001)  ploadbar=  1.01008500021154E+05
 cg2d: Sum(rhs),rhsMax =  -1.05348761791762E+02  1.30772715364501E+00
(PID.TID 0000.0001)  ploadbar=  1.01008623558546E+05
 cg2d: Sum(rhs),rhsMax =  -1.05693040133056E+02  1.30348881699181E+00
(PID.TID 0000.0001)  ploadbar=  1.01008747095938E+05
 cg2d: Sum(rhs),rhsMax =  -1.06036125223400E+02  1.29929723539634E+00
(PID.TID 0000.0001)  ploadbar=  1.01008870633330E+05
 cg2d: Sum(rhs),rhsMax =  -1.06326044351175E+02  1.29577599942821E+00
(PID.TID 0000.0001)  ploadbar=  1.01009855426205E+05
 cg2d: Sum(rhs),rhsMax =  -1.06555589489483E+02  1.29299307206296E+00
(PID.TID 0000.0001)  ploadbar=  1.01010840219081E+05
 cg2d: Sum(rhs),rhsMax =  -1.06726696004455E+02  1.29090680305865E+00
(PID.TID 0000.0001)  ploadbar=  1.01011825011956E+05
 cg2d: Sum(rhs),rhsMax =  -1.06848307013216E+02  1.28939870273502E+00
(PID.TID 0000.0001)  ploadbar=  1.01012809804832E+05
 cg2d: Sum(rhs),rhsMax =  -1.06927971944425E+02  1.28836896720870E+00
(PID.TID 0000.0001)  ploadbar=  1.01013794597708E+05
 cg2d: Sum(rhs),rhsMax =  -1.06974028362559E+02  1.28771278074358E+00
(PID.TID 0000.0001)  ploadbar=  1.01014779390583E+05
 cg2d: Sum(rhs),rhsMax =  -1.07063054981791E+02  1.28658723496358E+00
(PID.TID 0000.0001)  ploadbar=  1.01016828618540E+05
 cg2d: Sum(rhs),rhsMax =  -1.07205802435819E+02  1.28484814872929E+00
(PID.TID 0000.0001)  ploadbar=  1.01018877846497E+05
 cg2d: Sum(rhs),rhsMax =  -1.07408678284505E+02  1.28241835968094E+00
(PID.TID 0000.0001)  ploadbar=  1.01020927074454E+05
 cg2d: Sum(rhs),rhsMax =  -1.07671322306995E+02  1.27930660233410E+00
(PID.TID 0000.0001)  ploadbar=  1.01022976302411E+05
 cg2d: Sum(rhs),rhsMax =  -1.07983012961428E+02  1.27564186640713E+00
(PID.TID 0000.0001)  ploadbar=  1.01025025530368E+05
 cg2d: Sum(rhs),rhsMax =  -1.08329641280822E+02  1.27159573614088E+00
(PID.TID 0000.0001)  ploadbar=  1.01027074758325E+05
 cg2d: Sum(rhs),rhsMax =  -1.08700807805507E+02  1.26728923939156E+00
(PID.TID 0000.0001)  ploadbar=  1.01028938588128E+05
 cg2d: Sum(rhs),rhsMax =  -1.09103285438565E+02  1.26264782684036E+00
(PID.TID 0000.0001)  ploadbar=  1.01030802417932E+05
 cg2d: Sum(rhs),rhsMax =  -1.09589670213047E+02  1.25707497209194E+00
(PID.TID 0000.0001)  ploadbar=  1.01032666247735E+05
 cg2d: Sum(rhs),rhsMax =  -1.10150994384000E+02  1.25069766651887E+00
(PID.TID 0000.0001)  ploadbar=  1.01034530077539E+05
 cg2d: Sum(rhs),rhsMax =  -1.10778295629772E+02  1.24364193271310E+00
(PID.TID 0000.0001)  ploadbar=  1.01036393907342E+05
 cg2d: Sum(rhs),rhsMax =  -1.11478173761391E+02  1.23585333752415E+00
(PID.TID 0000.0001)  ploadbar=  1.01038257737146E+05
 cg2d: Sum(rhs),rhsMax =  -1.12236586200921E+02  1.22753098942711E+00
(PID.TID 0000.0001)  ploadbar=  1.01039974092424E+05
 cg2d: Sum(rhs),rhsMax =  -1.13091521070224E+02  1.21827529119792E+00
(PID.TID 0000.0001)  ploadbar=  1.01041690447702E+05
 cg2d: Sum(rhs),rhsMax =  -1.14050386822006E+02  1.20804689671484E+00
(PID.TID 0000.0001)  ploadbar=  1.01043406802980E+05
 cg2d: Sum(rhs),rhsMax =  -1.15127560807703E+02  1.19674482404486E+00
(PID.TID 0000.0001)  ploadbar=  1.01045123158259E+05
 cg2d: Sum(rhs),rhsMax =  -1.16333934810989E+02  1.18431622526767E+00
(PID.TID 0000.0001)  ploadbar=  1.01046839513537E+05
 cg2d: Sum(rhs),rhsMax =  -1.17682836239082E+02  1.17069621351538E+00
(PID.TID 0000.0001)  ploadbar=  1.01048555868815E+05
 cg2d: Sum(rhs),rhsMax =  -1.19153663463478E+02  1.15618507270500E+00
(PID.TID 0000.0001)  ploadbar=  1.01049774991858E+05
 cg2d: Sum(rhs),rhsMax =  -1.20664970009189E+02  1.14162518090270E+00
(PID.TID 0000.0001)  ploadbar=  1.01050994114901E+05
 cg2d: Sum(rhs),rhsMax =  -1.20601869074265E+02  1.14211845485152E+00
(PID.TID 0000.0001)  ploadbar=  1.01052213237944E+05
 cg2d: Sum(rhs),rhsMax =  -1.20028071578538E+02  1.14744696312942E+00
(PID.TID 0000.0001)  ploadbar=  1.01053432360987E+05
 cg2d: Sum(rhs),rhsMax =  -1.19520041299527E+02  1.15216329678715E+00
(PID.TID 0000.0001)  ploadbar=  1.01054651484030E+05
 cg2d: Sum(rhs),rhsMax =  -1.19098376280068E+02  1.15605176473716E+00
(PID.TID 0000.0001)  ploadbar=  1.01055870607073E+05
 cg2d: Sum(rhs),rhsMax =  -1.18735090126875E+02  1.15945709183399E+00
(PID.TID 0000.0001)  ploadbar=  1.01055835254956E+05
 cg2d: Sum(rhs),rhsMax =  -1.18412843661923E+02  1.16252364109823E+00
(PID.TID 0000.0001)  ploadbar=  1.01055799902839E+05
 cg2d: Sum(rhs),rhsMax =  -1.18115372028037E+02  1.16539291906335E+00
(PID.TID 0000.0001)  ploadbar=  1.01055764550721E+05
 cg2d: Sum(rhs),rhsMax =  -1.17849681784170E+02  1.16798783923978E+00
(PID.TID 0000.0001)  ploadbar=  1.01055729198604E+05
 cg2d: Sum(rhs),rhsMax =  -1.17596347037982E+02  1.17049547382958E+00
(PID.TID 0000.0001)  ploadbar=  1.01055693846487E+05
 cg2d: Sum(rhs),rhsMax =  -1.17369272462901E+02  1.17277332059932E+00
(PID.TID 0000.0001)  ploadbar=  1.01055658494370E+05
 cg2d: Sum(rhs),rhsMax =  -1.16885028031533E+02  1.17763164908086E+00
(PID.TID 0000.0001)  ploadbar=  1.01055708470016E+05
 cg2d: Sum(rhs),rhsMax =  -1.16278792399758E+02  1.18375403602465E+00
(PID.TID 0000.0001)  ploadbar=  1.01055758445662E+05
 cg2d: Sum(rhs),rhsMax =  -1.15509244819321E+02  1.19160536667444E+00
(PID.TID 0000.0001)  ploadbar=  1.01055808421308E+05
 cg2d: Sum(rhs),rhsMax =  -1.14895898199993E+02  1.19791175638912E+00
(PID.TID 0000.0001)  ploadbar=  1.01055858396954E+05
 cg2d: Sum(rhs),rhsMax =  -1.14483793256790E+02  1.20214690506312E+00
(PID.TID 0000.0001)  ploadbar=  1.01055908372600E+05
 cg2d: Sum(rhs),rhsMax =  -1.14345594815912E+02  1.20349468876479E+00
(PID.TID 0000.0001)  ploadbar=  1.01055958348246E+05
 cg2d: Sum(rhs),rhsMax =  -1.14577633110773E+02  1.20097116446624E+00
(PID.TID 0000.0001)  ploadbar=  1.01056354032204E+05
 cg2d: Sum(rhs),rhsMax =  -1.14988727851791E+02  1.19660218052987E+00
(PID.TID 0000.0001)  ploadbar=  1.01056749716162E+05
 cg2d: Sum(rhs),rhsMax =  -1.15528496091507E+02  1.19094326862614E+00
(PID.TID 0000.0001)  ploadbar=  1.01057145400121E+05
 cg2d: Sum(rhs),rhsMax =  -1.16163479510233E+02  1.18436928166072E+00
(PID.TID 0000.0001)  ploadbar=  1.01057541084079E+05
 cg2d: Sum(rhs),rhsMax =  -1.16872968374884E+02  1.17711455827387E+00
(PID.TID 0000.0001)  ploadbar=  1.01057936768037E+05
 cg2d: Sum(rhs),rhsMax =  -1.17655789104898E+02  1.16920843573996E+00
(PID.TID 0000.0001)  ploadbar=  1.01058332451996E+05
 cg2d: Sum(rhs),rhsMax =  -1.18369339151464E+02  1.16206578560606E+00
(PID.TID 0000.0001)  ploadbar=  1.01057373887674E+05
 cg2d: Sum(rhs),rhsMax =  -1.19006641732890E+02  1.15571920010003E+00
(PID.TID 0000.0001)  ploadbar=  1.01056415323353E+05
 cg2d: Sum(rhs),rhsMax =  -1.19563935749033E+02  1.15017606869224E+00
(PID.TID 0000.0001)  ploadbar=  1.01055456759032E+05
 cg2d: Sum(rhs),rhsMax =  -1.18625650910749E+02  1.15908079342059E+00
(PID.TID 0000.0001)  ploadbar=  1.01054498194710E+05
 cg2d: Sum(rhs),rhsMax =  -1.17058280344172E+02  1.17436585493636E+00
(PID.TID 0000.0001)  ploadbar=  1.01053539630389E+05
 cg2d: Sum(rhs),rhsMax =  -1.15805906423402E+02  1.18678696525338E+00
(PID.TID 0000.0001)  ploadbar=  1.01052581066067E+05
 cg2d: Sum(rhs),rhsMax =  -1.14642815884121E+02  1.19860253219023E+00
(PID.TID 0000.0001)  ploadbar=  1.01051234065505E+05
 cg2d: Sum(rhs),rhsMax =  -1.13629915863296E+02  1.20910396540011E+00
(PID.TID 0000.0001)  ploadbar=  1.01049887064942E+05
 cg2d: Sum(rhs),rhsMax =  -1.12778617318717E+02  1.21807912439881E+00
(PID.TID 0000.0001)  ploadbar=  1.01048540064380E+05
 cg2d: Sum(rhs),rhsMax =  -1.12065707005932E+02  1.22570443138027E+00
(PID.TID 0000.0001)  ploadbar=  1.01047193063817E+05
 cg2d: Sum(rhs),rhsMax =  -1.11454142254187E+02  1.23233336956625E+00
(PID.TID 0000.0001)  ploadbar=  1.01045846063255E+05
 cg2d: Sum(rhs),rhsMax =  -1.10895581284336E+02  1.23846734423181E+00
(PID.TID 0000.0001)  ploadbar=  1.01044499062692E+05
 cg2d: Sum(rhs),rhsMax =  -1.10139239041331E+02  1.24688654083643E+00
(PID.TID 0000.0001)  ploadbar=  1.01044991615080E+05
 cg2d: Sum(rhs),rhsMax =  -1.09357048620898E+02  1.25570026163011E+00
(PID.TID 0000.0001)  ploadbar=  1.01045484167468E+05
 cg2d: Sum(rhs),rhsMax =  -1.08529601112828E+02  1.26514792362897E+00
(PID.TID 0000.0001)  ploadbar=  1.01045976719856E+05
 cg2d: Sum(rhs),rhsMax =  -1.07658956729519E+02  1.27523069543423E+00
(PID.TID 0000.0001)  ploadbar=  1.01046469272244E+05
 cg2d: Sum(rhs),rhsMax =  -1.06753660449717E+02  1.28587225292411E+00
(PID.TID 0000.0001)  ploadbar=  1.01046961824632E+05
 cg2d: Sum(rhs),rhsMax =  -1.05827424631750E+02  1.29692340269124E+00
(PID.TID 0000.0001)  ploadbar=  1.01047454377020E+05
 cg2d: Sum(rhs),rhsMax =  -1.04824404282199E+02  1.30915893667388E+00
(PID.TID 0000.0001)  ploadbar=  1.01047919888208E+05
 cg2d: Sum(rhs),rhsMax =  -1.03821596304664E+02  1.32165519425668E+00
(PID.TID 0000.0001)  ploadbar=  1.01048385399395E+05
 cg2d: Sum(rhs),rhsMax =  -1.02447718282654E+02  1.33925546650858E+00
(PID.TID 0000.0001)  ploadbar=  1.01048850910583E+05
 cg2d: Sum(rhs),rhsMax =  -1.01115888658452E+02  1.35679707951697E+00
(PID.TID 0000.0001)  ploadbar=  1.01049316421771E+05
 cg2d: Sum(rhs),rhsMax =  -9.98171149841383E+01  1.37437826699682E+00
(PID.TID 0000.0001)  ploadbar=  1.01049781932958E+05
 cg2d: Sum(rhs),rhsMax =  -9.86539072655027E+01  1.39053014801827E+00
(PID.TID 0000.0001)  ploadbar=  1.01050247444146E+05
 cg2d: Sum(rhs),rhsMax =  -9.75952848346944E+01  1.40554178119368E+00
(PID.TID 0000.0001)  ploadbar=  1.01051559366780E+05
 cg2d: Sum(rhs),rhsMax =  -9.65949601768538E+01  1.41999679860036E+00
(PID.TID 0000.0001)  ploadbar=  1.01052871289415E+05
 cg2d: Sum(rhs),rhsMax =  -9.56323733622043E+01  1.43415220849775E+00
(PID.TID 0000.0001)  ploadbar=  1.01054183212050E+05
 cg2d: Sum(rhs),rhsMax =  -9.46936756389726E+01  1.44818809224171E+00
(PID.TID 0000.0001)  ploadbar=  1.01055495134684E+05
 cg2d: Sum(rhs),rhsMax =  -9.37799969230172E+01  1.46206926964734E+00
(PID.TID 0000.0001)  ploadbar=  1.01056807057319E+05
 cg2d: Sum(rhs),rhsMax =  -9.28938684023432E+01  1.47574004963032E+00
(PID.TID 0000.0001)  ploadbar=  1.01058118979953E+05
 cg2d: Sum(rhs),rhsMax =  -9.20861023826399E+01  1.48846481213227E+00
(PID.TID 0000.0001)  ploadbar=  1.01057715538098E+05
 cg2d: Sum(rhs),rhsMax =  -9.13465184679107E+01  1.50033765353909E+00
(PID.TID 0000.0001)  ploadbar=  1.01057312096242E+05
 cg2d: Sum(rhs),rhsMax =  -9.06840866190972E+01  1.51115310343927E+00
(PID.TID 0000.0001)  ploadbar=  1.01056908654385E+05
 cg2d: Sum(rhs),rhsMax =  -9.00645925125422E+01  1.52143565265279E+00
(PID.TID 0000.0001)  ploadbar=  1.01056505212530E+05
 cg2d: Sum(rhs),rhsMax =  -8.92187302353386E+01  1.53578052282422E+00
(PID.TID 0000.0001)  ploadbar=  1.01056101770674E+05
 cg2d: Sum(rhs),rhsMax =  -8.83503066811211E+01  1.55082801290970E+00
(PID.TID 0000.0001)  ploadbar=  1.01055698328817E+05
 cg2d: Sum(rhs),rhsMax =  -8.74808458321131E+01  1.56616119463535E+00
(PID.TID 0000.0001)  ploadbar=  1.01055194103258E+05
 cg2d: Sum(rhs),rhsMax =  -8.66377610083883E+01  1.58127808943844E+00
(PID.TID 0000.0001)  ploadbar=  1.01054689877699E+05
 cg2d: Sum(rhs),rhsMax =  -8.70651972590830E+01  1.57334573003623E+00
(PID.TID 0000.0001)  ploadbar=  1.01054185652140E+05
 cg2d: Sum(rhs),rhsMax =  -8.80076100634001E+01  1.55628498009454E+00
(PID.TID 0000.0001)  ploadbar=  1.01053681426580E+05
 cg2d: Sum(rhs),rhsMax =  -8.90191963615083E+01  1.53834449348711E+00
(PID.TID 0000.0001)  ploadbar=  1.01053177201021E+05
 cg2d: Sum(rhs),rhsMax =  -9.01077343852958E+01  1.51945941971575E+00
(PID.TID 0000.0001)  ploadbar=  1.01052672975462E+05
 cg2d: Sum(rhs),rhsMax =  -9.11094951034617E+01  1.50247786340470E+00
(PID.TID 0000.0001)  ploadbar=  1.01051988607046E+05
 cg2d: Sum(rhs),rhsMax =  -9.20317527482415E+01  1.48716571587762E+00
(PID.TID 0000.0001)  ploadbar=  1.01051304238629E+05
 cg2d: Sum(rhs),rhsMax =  -9.28661284595747E+01  1.47356786850328E+00
(PID.TID 0000.0001)  ploadbar=  1.01050619870213E+05
 cg2d: Sum(rhs),rhsMax =  -9.35678325015982E+01  1.46230017758754E+00
(PID.TID 0000.0001)  ploadbar=  1.01049935501797E+05
 cg2d: Sum(rhs),rhsMax =  -9.41316652361774E+01  1.45334005460848E+00
(PID.TID 0000.0001)  ploadbar=  1.01049251133381E+05
 cg2d: Sum(rhs),rhsMax =  -9.43586785823458E+01  1.44964227872605E+00
(PID.TID 0000.0001)  ploadbar=  1.01048566764964E+05
 cg2d: Sum(rhs),rhsMax =  -9.35353430302994E+01  1.46220677501922E+00
(PID.TID 0000.0001)  ploadbar=  1.01047491706778E+05
 cg2d: Sum(rhs),rhsMax =  -9.27250612016955E+01  1.47478160788456E+00
(PID.TID 0000.0001)  ploadbar=  1.01046416648591E+05
 cg2d: Sum(rhs),rhsMax =  -9.19303546598643E+01  1.48731283459120E+00
(PID.TID 0000.0001)  ploadbar=  1.01045341590405E+05
 cg2d: Sum(rhs),rhsMax =  -9.11944429923139E+01  1.49907730413225E+00
(PID.TID 0000.0001)  ploadbar=  1.01044266532219E+05
 cg2d: Sum(rhs),rhsMax =  -9.14154456280869E+01  1.49519534676147E+00
(PID.TID 0000.0001)  ploadbar=  1.01043191474032E+05
 cg2d: Sum(rhs),rhsMax =  -9.17116230958581E+01  1.49008701855855E+00
(PID.TID 0000.0001)  ploadbar=  1.01042116415846E+05
 cg2d: Sum(rhs),rhsMax =  -9.21136323826403E+01  1.48337457264497E+00
(PID.TID 0000.0001)  ploadbar=  1.01040142921763E+05
 cg2d: Sum(rhs),rhsMax =  -9.26325189834947E+01  1.47491123665315E+00
(PID.TID 0000.0001)  ploadbar=  1.01038169427681E+05
 cg2d: Sum(rhs),rhsMax =  -9.32595489572323E+01  1.46488035627665E+00
(PID.TID 0000.0001)  ploadbar=  1.01036195933599E+05
 cg2d: Sum(rhs),rhsMax =  -9.39607337700416E+01  1.45386875861887E+00
(PID.TID 0000.0001)  ploadbar=  1.01034222439516E+05
 cg2d: Sum(rhs),rhsMax =  -9.47136046727403E+01  1.44226688631532E+00
(PID.TID 0000.0001)  ploadbar=  1.01032248945434E+05
 cg2d: Sum(rhs),rhsMax =  -9.55103105180141E+01  1.43022400660515E+00
(PID.TID 0000.0001)  ploadbar=  1.01030275451352E+05
 cg2d: Sum(rhs),rhsMax =  -9.64161406143365E+01  1.41676327683986E+00
(PID.TID 0000.0001)  ploadbar=  1.01028395968358E+05
 cg2d: Sum(rhs),rhsMax =  -9.74800082335269E+01  1.40125939926748E+00
(PID.TID 0000.0001)  ploadbar=  1.01026516485364E+05
 cg2d: Sum(rhs),rhsMax =  -9.87276002446658E+01  1.38349136406270E+00
(PID.TID 0000.0001)  ploadbar=  1.01024637002370E+05
 cg2d: Sum(rhs),rhsMax =  -1.00170603016660E+02  1.36348288997848E+00
(PID.TID 0000.0001)  ploadbar=  1.01022757519376E+05
 cg2d: Sum(rhs),rhsMax =  -1.01829665387337E+02  1.34117355634371E+00
(PID.TID 0000.0001)  ploadbar=  1.01020878036383E+05
 cg2d: Sum(rhs),rhsMax =  -1.03692221571916E+02  1.31696634754568E+00
(PID.TID 0000.0001)  ploadbar=  1.01018998553389E+05
 cg2d: Sum(rhs),rhsMax =  -1.05715862220076E+02  1.29166524371337E+00
(PID.TID 0000.0001)  ploadbar=  1.01017607703917E+05
 cg2d: Sum(rhs),rhsMax =  -1.07838641663229E+02  1.26616567140812E+00
(PID.TID 0000.0001)  ploadbar=  1.01016216854445E+05
 cg2d: Sum(rhs),rhsMax =  -1.10036970774587E+02  1.24081735752871E+00
(PID.TID 0000.0001)  ploadbar=  1.01014826004973E+05
 cg2d: Sum(rhs),rhsMax =  -1.10191519156491E+02  1.23904270599250E+00
(PID.TID 0000.0001)  ploadbar=  1.01013435155501E+05
 cg2d: Sum(rhs),rhsMax =  -1.10345581430400E+02  1.23729616695821E+00
(PID.TID 0000.0001)  ploadbar=  1.01012044306029E+05
 cg2d: Sum(rhs),rhsMax =  -1.10559530658503E+02  1.23489185642330E+00
(PID.TID 0000.0001)  ploadbar=  1.01010653456557E+05
 cg2d: Sum(rhs),rhsMax =  -1.10726176423937E+02  1.23300906319069E+00
(PID.TID 0000.0001)  ploadbar=  1.01008133506582E+05
 cg2d: Sum(rhs),rhsMax =  -1.10837842155249E+02  1.23171513490596E+00
(PID.TID 0000.0001)  ploadbar=  1.01005613556608E+05
 cg2d: Sum(rhs),rhsMax =  -1.10876653274111E+02  1.23119975817911E+00
(PID.TID 0000.0001)  ploadbar=  1.01003093606634E+05
 cg2d: Sum(rhs),rhsMax =  -1.10842796087392E+02  1.23145711923463E+00
(PID.TID 0000.0001)  ploadbar=  1.01000573656659E+05
 cg2d: Sum(rhs),rhsMax =  -1.12751073556784E+02  1.21046310004311E+00
(PID.TID 0000.0001)  ploadbar=  1.00998053706685E+05
 cg2d: Sum(rhs),rhsMax =  -1.14875480831694E+02  1.18789404856729E+00
(PID.TID 0000.0001)  ploadbar=  1.00995533756711E+05
 cg2d: Sum(rhs),rhsMax =  -1.14302036560253E+02  1.19373724542022E+00
(PID.TID 0000.0001)  ploadbar=  1.00993142634120E+05
 cg2d: Sum(rhs),rhsMax =  -1.13164037272192E+02  1.20567834613898E+00
(PID.TID 0000.0001)  ploadbar=  1.00990751511530E+05
 cg2d: Sum(rhs),rhsMax =  -1.11763628661948E+02  1.22076359562530E+00
(PID.TID 0000.0001)  ploadbar=  1.00988360388939E+05
 cg2d: Sum(rhs),rhsMax =  -1.10200077093083E+02  1.23810010322968E+00
(PID.TID 0000.0001)  ploadbar=  1.00985969266348E+05
 cg2d: Sum(rhs),rhsMax =  -1.08457988203116E+02  1.25804342334468E+00
(PID.TID 0000.0001)  ploadbar=  1.00983578143758E+05
 cg2d: Sum(rhs),rhsMax =  -1.06545347739063E+02  1.28072513351516E+00
(PID.TID 0000.0001)  ploadbar=  1.00981187021167E+05
 cg2d: Sum(rhs),rhsMax =  -1.04943427964663E+02  1.30035030973483E+00
(PID.TID 0000.0001)  ploadbar=  1.00979251729067E+05
 cg2d: Sum(rhs),rhsMax =  -1.03605891507079E+02  1.31717826715656E+00
(PID.TID 0000.0001)      cg2d_init_res =   3.03321420530731E-01
(PID.TID 0000.0001)      cg2d_iters(min,last) =      -1     135
(PID.TID 0000.0001)      cg2d_last_res =   9.97623928274109E-08
(PID.TID 0000.0001) // =======================================================
(PID.TID 0000.0001) // Begin MONITOR dynamic field statistics
(PID.TID 0000.0001) // =======================================================
(PID.TID 0000.0001) %MON time_tsnumber                =                  8760
(PID.TID 0000.0001) %MON time_secondsf                =   3.1536000000000E+07
(PID.TID 0000.0001) %MON dynstat_eta_max              =   1.0485492714758E+00
(PID.TID 0000.0001) %MON dynstat_eta_min              =  -4.6478873963997E+00
(PID.TID 0000.0001) %MON dynstat_eta_mean             =   6.9070409856168E-02
(PID.TID 0000.0001) %MON dynstat_eta_sd               =   6.8795408892960E-01
(PID.TID 0000.0001) %MON dynstat_eta_del2             =   1.9651288539224E-04
(PID.TID 0000.0001) %MON dynstat_uvel_max             =   1.0552440996474E+00
(PID.TID 0000.0001) %MON dynstat_uvel_min             =  -8.1373291199862E-01
(PID.TID 0000.0001) %MON dynstat_uvel_mean            =   1.1483053131800E-03
(PID.TID 0000.0001) %MON dynstat_uvel_sd              =   2.0604160927839E-02
(PID.TID 0000.0001) %MON dynstat_uvel_del2            =   9.1850930727133E-06
(PID.TID 0000.0001) %MON dynstat_vvel_max             =   1.0566595239116E+00
(PID.TID 0000.0001) %MON dynstat_vvel_min             =  -9.6825124977215E-01
(PID.TID 0000.0001) %MON dynstat_vvel_mean            =   1.2313839129013E-03
(PID.TID 0000.0001) %MON dynstat_vvel_sd              =   2.2220060445978E-02
(PID.TID 0000.0001) %MON dynstat_vvel_del2            =   9.7591884921449E-06
(PID.TID 0000.0001) %MON dynstat_wvel_max             =   5.0050200546518E-04
(PID.TID 0000.0001) %MON dynstat_wvel_min             =  -9.6418876578215E-04
(PID.TID 0000.0001) %MON dynstat_wvel_mean            =  -1.3622757665722E-09
(PID.TID 0000.0001) %MON dynstat_wvel_sd              =   2.1868741895822E-05
(PID.TID 0000.0001) %MON dynstat_wvel_del2            =   1.6364330174016E-08
(PID.TID 0000.0001) %MON dynstat_theta_max            =   3.1648224182129E+01
(PID.TID 0000.0001) %MON dynstat_theta_min            =  -1.9853703932009E+00
(PID.TID 0000.0001) %MON dynstat_theta_mean           =   3.5809892466090E+00
(PID.TID 0000.0001) %MON dynstat_theta_sd             =   4.4209472683618E+00
(PID.TID 0000.0001) %MON dynstat_theta_del2           =   9.1122958320552E-05
(PID.TID 0000.0001) %MON dynstat_salt_max             =   4.0642654617209E+01
(PID.TID 0000.0001) %MON dynstat_salt_min             =   2.3276055817997E+01
(PID.TID 0000.0001) %MON dynstat_salt_mean            =   3.4727009703682E+01
(PID.TID 0000.0001) %MON dynstat_salt_sd              =   3.7817918484230E-01
(PID.TID 0000.0001) %MON dynstat_salt_del2            =   2.0317363204938E-05
(PID.TID 0000.0001) %MON dynstat_sst_max              =   3.1648210040934E+01
(PID.TID 0000.0001) %MON dynstat_sst_min              =  -1.9613981152004E+00
(PID.TID 0000.0001) %MON dynstat_sst_mean             =   1.8093196270344E+01
(PID.TID 0000.0001) %MON dynstat_sst_sd               =   1.0004285958162E+01
(PID.TID 0000.0001) %MON dynstat_sst_del2             =   6.7394825658330E-04
(PID.TID 0000.0001) %MON dynstat_sss_max              =   4.0170588375079E+01
(PID.TID 0000.0001) %MON dynstat_sss_min              =   2.3276055817997E+01
(PID.TID 0000.0001) %MON dynstat_sss_mean             =   3.4737983630988E+01
(PID.TID 0000.0001) %MON dynstat_sss_sd               =   1.2254053612557E+00
(PID.TID 0000.0001) %MON dynstat_sss_del2             =   2.9906120425075E-04
(PID.TID 0000.0001) %MON forcing_qnet_max             =   8.8703156694477E+02
(PID.TID 0000.0001) %MON forcing_qnet_min             =  -6.3074223135388E+02
(PID.TID 0000.0001) %MON forcing_qnet_mean            =   7.1625256887360E+00
(PID.TID 0000.0001) %MON forcing_qnet_sd              =   2.1949341783160E+02
(PID.TID 0000.0001) %MON forcing_qnet_del2            =   1.1604330957334E-01
(PID.TID 0000.0001) %MON forcing_qsw_max              =   7.8741812787737E+01
(PID.TID 0000.0001) %MON forcing_qsw_min              =  -7.3380015597812E+02
(PID.TID 0000.0001) %MON forcing_qsw_mean             =  -1.6364870664578E+02
(PID.TID 0000.0001) %MON forcing_qsw_sd               =   1.8407445420397E+02
(PID.TID 0000.0001) %MON forcing_qsw_del2             =   6.8179918206602E-02
(PID.TID 0000.0001) %MON forcing_empmr_max            =   1.4343679486715E-03
(PID.TID 0000.0001) %MON forcing_empmr_min            =  -3.8356451334238E-03
(PID.TID 0000.0001) %MON forcing_empmr_mean           =  -6.0899689826087E-07
(PID.TID 0000.0001) %MON forcing_empmr_sd             =   1.0718965263003E-04
(PID.TID 0000.0001) %MON forcing_empmr_del2           =   3.3479824839383E-07
(PID.TID 0000.0001) %MON forcing_fu_max               =   1.0807091097037E+00
(PID.TID 0000.0001) %MON forcing_fu_min               =  -1.4697046878550E+00
(PID.TID 0000.0001) %MON forcing_fu_mean              =   1.1683646536608E-02
(PID.TID 0000.0001) %MON forcing_fu_sd                =   1.2497326643929E-01
(PID.TID 0000.0001) %MON forcing_fu_del2              =   8.3583360028554E-05
(PID.TID 0000.0001) %MON forcing_fv_max               =   1.6988879849223E+00
(PID.TID 0000.0001) %MON forcing_fv_min               =  -1.4100250605755E+00
(PID.TID 0000.0001) %MON forcing_fv_mean              =  -3.0877285174096E-03
(PID.TID 0000.0001) %MON forcing_fv_sd                =   1.1860584458614E-01
(PID.TID 0000.0001) %MON forcing_fv_del2              =   9.2553266478734E-05
(PID.TID 0000.0001) %MON trAdv_CFL_u_max              =   7.0214782278701E-02
(PID.TID 0000.0001) %MON trAdv_CFL_v_max              =   7.0372819638703E-02
(PID.TID 0000.0001) %MON trAdv_CFL_w_max              =   2.3626583412154E-01
(PID.TID 0000.0001) %MON advcfl_uvel_max              =   7.6676760797658E-02
(PID.TID 0000.0001) %MON advcfl_vvel_max              =   6.2696530534335E-02
(PID.TID 0000.0001) %MON advcfl_wvel_max              =   2.3981298755268E-01
(PID.TID 0000.0001) %MON advcfl_W_hf_max              =   2.4054147536355E-01
(PID.TID 0000.0001) %MON pe_b_mean                    =   2.2587582692374E-03
(PID.TID 0000.0001) %MON ke_max                       =   5.6266091623957E-01
(PID.TID 0000.0001) %MON ke_mean                      =   4.4415088357623E-04
(PID.TID 0000.0001) %MON ke_vol                       =   1.3350226043406E+18
(PID.TID 0000.0001) %MON vort_r_min                   =  -3.0906802457232E-05
(PID.TID 0000.0001) %MON vort_r_max                   =   1.7007313773760E-05
(PID.TID 0000.0001) %MON vort_a_mean                  =  -1.9727725038459E-05
(PID.TID 0000.0001) %MON vort_a_sd                    =   7.4542991507853E-05
(PID.TID 0000.0001) %MON vort_p_mean                  =  -2.1759925165773E-05
(PID.TID 0000.0001) %MON vort_p_sd                    =   9.7244780339535E-05
(PID.TID 0000.0001) %MON surfExpan_theta_mean         =  -3.0538676051525E-08
(PID.TID 0000.0001) %MON surfExpan_salt_mean          =   8.3760994030858E-09
(PID.TID 0000.0001) // =======================================================
(PID.TID 0000.0001) // End MONITOR dynamic field statistics
(PID.TID 0000.0001) // =======================================================
(PID.TID 0000.0001)  ploadbar=  1.00977316436967E+05
(PID.TID 0000.0001) %SBO sbo_mass                     =   1.3737591068018E+21
(PID.TID 0000.0001) %SBO sbo_mass_fw                  =   4.6291431289625E+16
(PID.TID 0000.0001) %SBO sbo_zoamc                    =   1.2299302993656E+25
(PID.TID 0000.0001) %SBO sbo_zoamp                    =   2.9276636753972E+30
(PID.TID 0000.0001) // =======================================================
(PID.TID 0000.0001) // Begin MONITOR SEAICE statistics
(PID.TID 0000.0001) // =======================================================
(PID.TID 0000.0001) %MON seaice_tsnumber              =                  8760
(PID.TID 0000.0001) %MON seaice_time_sec              =   3.1536000000000E+07
(PID.TID 0000.0001) %MON seaice_uice_max              =   4.0000000000000E-01
(PID.TID 0000.0001) %MON seaice_uice_min              =  -4.0000000000000E-01
(PID.TID 0000.0001) %MON seaice_uice_mean             =  -5.5326822236258E-03
(PID.TID 0000.0001) %MON seaice_uice_sd               =   1.8285982345150E-01
(PID.TID 0000.0001) %MON seaice_uice_del2             =   1.5616435141590E-04
(PID.TID 0000.0001) %MON seaice_vice_max              =   4.0000000000000E-01
(PID.TID 0000.0001) %MON seaice_vice_min              =  -4.0000000000000E-01
(PID.TID 0000.0001) %MON seaice_vice_mean             =  -8.7886731590024E-03
(PID.TID 0000.0001) %MON seaice_vice_sd               =   1.7875685833365E-01
(PID.TID 0000.0001) %MON seaice_vice_del2             =   1.6414751566414E-04
(PID.TID 0000.0001) %MON seaice_area_max              =   9.7000000000000E-01
(PID.TID 0000.0001) %MON seaice_area_min              =   0.0000000000000E+00
(PID.TID 0000.0001) %MON seaice_area_mean             =   5.3015599457030E-02
(PID.TID 0000.0001) %MON seaice_area_sd               =   2.0577761033490E-01
(PID.TID 0000.0001) %MON seaice_area_del2             =   2.2274659641682E-04
(PID.TID 0000.0001) %MON seaice_heff_max              =   4.8764433620954E+00
(PID.TID 0000.0001) %MON seaice_heff_min              =   0.0000000000000E+00
(PID.TID 0000.0001) %MON seaice_heff_mean             =   6.1093857053666E-02
(PID.TID 0000.0001) %MON seaice_heff_sd               =   2.9469575569600E-01
(PID.TID 0000.0001) %MON seaice_heff_del2             =   2.0109469229647E-04
(PID.TID 0000.0001) %MON seaice_hsnow_max             =   9.9784032030181E-01
(PID.TID 0000.0001) %MON seaice_hsnow_min             =  -6.5821289235208E-05
(PID.TID 0000.0001) %MON seaice_hsnow_mean            =   7.9751697915079E-03
(PID.TID 0000.0001) %MON seaice_hsnow_sd              =   4.0579587361085E-02
(PID.TID 0000.0001) %MON seaice_hsnow_del2            =   4.9016256102010E-05
(PID.TID 0000.0001) // =======================================================
(PID.TID 0000.0001) // End MONITOR SEAICE statistics
(PID.TID 0000.0001) // =======================================================
(PID.TID 0000.0001) // =======================================================
(PID.TID 0000.0001) // Begin MONITOR EXF statistics
(PID.TID 0000.0001) // =======================================================
(PID.TID 0000.0001) %MON exf_tsnumber                 =                  8760
(PID.TID 0000.0001) %MON exf_time_sec                 =   3.1536000000000E+07
(PID.TID 0000.0001) %MON exf_ustress_max              =   1.0156559348106E+00
(PID.TID 0000.0001) %MON exf_ustress_min              =  -2.2625053875783E+00
(PID.TID 0000.0001) %MON exf_ustress_mean             =   1.1084586131823E-02
(PID.TID 0000.0001) %MON exf_ustress_sd               =   1.2454182166453E-01
(PID.TID 0000.0001) %MON exf_ustress_del2             =   9.3896256013643E-05
(PID.TID 0000.0001) %MON exf_vstress_max              =   1.7142878514972E+00
(PID.TID 0000.0001) %MON exf_vstress_min              =  -1.5219366022962E+00
(PID.TID 0000.0001) %MON exf_vstress_mean             =  -2.2483364530680E-03
(PID.TID 0000.0001) %MON exf_vstress_sd               =   1.2072565212027E-01
(PID.TID 0000.0001) %MON exf_vstress_del2             =   1.0038907146811E-04
(PID.TID 0000.0001) %MON exf_hflux_max                =   1.4681290219028E+03
(PID.TID 0000.0001) %MON exf_hflux_min                =  -5.8336018975838E+02
(PID.TID 0000.0001) %MON exf_hflux_mean               =   1.9181847054298E+01
(PID.TID 0000.0001) %MON exf_hflux_sd                 =   2.4056546408586E+02
(PID.TID 0000.0001) %MON exf_hflux_del2               =   5.7695937139589E-01
(PID.TID 0000.0001) %MON exf_sflux_max                =   1.7687099579440E-07
(PID.TID 0000.0001) %MON exf_sflux_min                =  -3.7199267943273E-06
(PID.TID 0000.0001) %MON exf_sflux_mean               =   2.4665726609632E-09
(PID.TID 0000.0001) %MON exf_sflux_sd                 =   9.3037240137138E-08
(PID.TID 0000.0001) %MON exf_sflux_del2               =   2.8758674768737E-10
(PID.TID 0000.0001) %MON exf_wspeed_max               =   2.3689439773560E+01
(PID.TID 0000.0001) %MON exf_wspeed_min               =   2.2191631793976E-01
(PID.TID 0000.0001) %MON exf_wspeed_mean              =   7.2969761374129E+00
(PID.TID 0000.0001) %MON exf_wspeed_sd                =   3.2211398786502E+00
(PID.TID 0000.0001) %MON exf_wspeed_del2              =   1.7422885013837E-02
(PID.TID 0000.0001) %MON exf_atemp_max                =   3.0559659519196E+02
(PID.TID 0000.0001) %MON exf_atemp_min                =   2.2842357101440E+02
(PID.TID 0000.0001) %MON exf_atemp_mean               =   2.8912523457904E+02
(PID.TID 0000.0001) %MON exf_atemp_sd                 =   1.2070215130679E+01
(PID.TID 0000.0001) %MON exf_atemp_del2               =   3.5872179313592E-02
(PID.TID 0000.0001) %MON exf_aqh_max                  =   2.2679240442812E-02
(PID.TID 0000.0001) %MON exf_aqh_min                  =  -5.4024791097618E-05
(PID.TID 0000.0001) %MON exf_aqh_mean                 =   1.0717102069315E-02
(PID.TID 0000.0001) %MON exf_aqh_sd                   =   5.5889041524629E-03
(PID.TID 0000.0001) %MON exf_aqh_del2                 =   2.0418955442351E-05
(PID.TID 0000.0001) %MON exf_lwflux_max               =   2.1272629291127E+02
(PID.TID 0000.0001) %MON exf_lwflux_min               =  -2.2740700693707E+01
(PID.TID 0000.0001) %MON exf_lwflux_mean              =   4.8048499812763E+01
(PID.TID 0000.0001) %MON exf_lwflux_sd                =   2.7380850639380E+01
(PID.TID 0000.0001) %MON exf_lwflux_del2              =   1.2958546212201E-01
(PID.TID 0000.0001) %MON exf_evap_max                 =   1.8846554417680E-07
(PID.TID 0000.0001) %MON exf_evap_min                 =  -2.6871352911176E-08
(PID.TID 0000.0001) %MON exf_evap_mean                =   4.5256344377881E-08
(PID.TID 0000.0001) %MON exf_evap_sd                  =   2.7955345435896E-08
(PID.TID 0000.0001) %MON exf_evap_del2                =   9.8235999388304E-11
(PID.TID 0000.0001) %MON exf_precip_max               =   3.7563148680420E-06
(PID.TID 0000.0001) %MON exf_precip_min               =  -2.3496198764406E-08
(PID.TID 0000.0001) %MON exf_precip_mean              =   3.9731962243530E-08
(PID.TID 0000.0001) %MON exf_precip_sd                =   8.6527870392759E-08
(PID.TID 0000.0001) %MON exf_precip_del2              =   2.8158771892603E-10
(PID.TID 0000.0001) %MON exf_swflux_max               =   1.0514332504272E+02
(PID.TID 0000.0001) %MON exf_swflux_min               =  -7.0088182167762E+02
(PID.TID 0000.0001) %MON exf_swflux_mean              =  -1.6984484222692E+02
(PID.TID 0000.0001) %MON exf_swflux_sd                =   1.7832369862010E+02
(PID.TID 0000.0001) %MON exf_swflux_del2              =   4.8356494001518E-01
(PID.TID 0000.0001) %MON exf_swdown_max               =   7.5611276245117E+02
(PID.TID 0000.0001) %MON exf_swdown_min               =  -1.5020475006104E+02
(PID.TID 0000.0001) %MON exf_swdown_mean              =   1.8390235358822E+02
(PID.TID 0000.0001) %MON exf_swdown_sd                =   1.9296332695655E+02
(PID.TID 0000.0001) %MON exf_swdown_del2              =   5.2494008779202E-01
(PID.TID 0000.0001) %MON exf_lwdown_max               =   4.6807113647461E+02
(PID.TID 0000.0001) %MON exf_lwdown_min               =   8.7367366790771E+01
(PID.TID 0000.0001) %MON exf_lwdown_mean              =   3.6125567718052E+02
(PID.TID 0000.0001) %MON exf_lwdown_sd                =   6.3987977100593E+01
(PID.TID 0000.0001) %MON exf_lwdown_del2              =   6.9128037710959E-01
(PID.TID 0000.0001) %MON exf_apressure_max            =   1.0322605468750E+05
(PID.TID 0000.0001) %MON exf_apressure_min            =   9.6221128906250E+04
(PID.TID 0000.0001) %MON exf_apressure_mean           =   1.0097538114487E+05
(PID.TID 0000.0001) %MON exf_apressure_sd             =   1.0500788948867E+03
(PID.TID 0000.0001) %MON exf_apressure_del2           =   2.0646639561424E+02
(PID.TID 0000.0001) %MON exf_runoff_max               =   1.9834598509577E-06
(PID.TID 0000.0001) %MON exf_runoff_min               =   0.0000000000000E+00
(PID.TID 0000.0001) %MON exf_runoff_mean              =   3.0578094733873E-09
(PID.TID 0000.0001) %MON exf_runoff_sd                =   2.3469962782488E-08
(PID.TID 0000.0001) %MON exf_runoff_del2              =   6.8474404004213E-11
(PID.TID 0000.0001) // =======================================================
(PID.TID 0000.0001) // End MONITOR EXF statistics
(PID.TID 0000.0001) // =======================================================
 cg2d: Sum(rhs),rhsMax =  -1.02381313448345E+02  1.33293675953614E+00
(PID.TID 0000.0001)  ploadbar=  1.00975381144867E+05
 cg2d: Sum(rhs),rhsMax =  -1.01369892388448E+02  1.34620365880119E+00
(PID.TID 0000.0001)  ploadbar=  1.00973445852767E+05
 cg2d: Sum(rhs),rhsMax =  -1.00583165799436E+02  1.35666473140767E+00
(PID.TID 0000.0001)  ploadbar=  1.00971510560667E+05
 cg2d: Sum(rhs),rhsMax =  -1.00050219635291E+02  1.36378187382022E+00
(PID.TID 0000.0001)  ploadbar=  1.00969575268567E+05
 cg2d: Sum(rhs),rhsMax =  -9.97856148603856E+01  1.36730126952299E+00
(PID.TID 0000.0001)  ploadbar=  1.00967518689577E+05
 cg2d: Sum(rhs),rhsMax =  -9.97514979327334E+01  1.36767755787833E+00
(PID.TID 0000.0001)  ploadbar=  1.00965462110587E+05
 cg2d: Sum(rhs),rhsMax =  -9.98130751497227E+01  1.36674942199456E+00
(PID.TID 0000.0001)  ploadbar=  1.00963405531596E+05
 cg2d: Sum(rhs),rhsMax =  -9.99872633212940E+01  1.36429460037788E+00
(PID.TID 0000.0001)  ploadbar=  1.00961348952606E+05
 cg2d: Sum(rhs),rhsMax =  -1.00266869325979E+02  1.36043003740564E+00
(PID.TID 0000.0001)  ploadbar=  1.00959292373616E+05
 cg2d: Sum(rhs),rhsMax =  -1.00637904853334E+02  1.35535829116207E+00
(PID.TID 0000.0001)  ploadbar=  1.00957235794626E+05
 cg2d: Sum(rhs),rhsMax =  -1.00945108092434E+02  1.35117342127117E+00
(PID.TID 0000.0001)  ploadbar=  1.00955521529846E+05
 cg2d: Sum(rhs),rhsMax =  -1.01277397999224E+02  1.34666443438433E+00
(PID.TID 0000.0001)  ploadbar=  1.00953807265067E+05
(PID.TID 0000.0001) %CHECKPOINT      8772 0000008772
 cg2d: Sum(rhs),rhsMax =  -1.01673832078666E+02  1.34131411953819E+00
(PID.TID 0000.0001)  ploadbar=  1.00952093000287E+05
 cg2d: Sum(rhs),rhsMax =  -1.02087529458189E+02  1.33575256107625E+00
(PID.TID 0000.0001)  ploadbar=  1.00950378735508E+05
 cg2d: Sum(rhs),rhsMax =  -1.02533286267887E+02  1.32979207006526E+00
(PID.TID 0000.0001)  ploadbar=  1.00948664470729E+05
 cg2d: Sum(rhs),rhsMax =  -1.03007047752155E+02  1.32349486592771E+00
(PID.TID 0000.0001)  ploadbar=  1.00946950205949E+05
 cg2d: Sum(rhs),rhsMax =  -1.03546234799445E+02  1.31647918055801E+00
(PID.TID 0000.0001)  ploadbar=  1.00946667326083E+05
 cg2d: Sum(rhs),rhsMax =  -1.04048607842353E+02  1.31004063641073E+00
(PID.TID 0000.0001)  ploadbar=  1.00946384446217E+05
 cg2d: Sum(rhs),rhsMax =  -1.04499342306463E+02  1.30433967090512E+00
(PID.TID 0000.0001)  ploadbar=  1.00946101566351E+05
 cg2d: Sum(rhs),rhsMax =  -1.04865155608133E+02  1.29976681765120E+00
(PID.TID 0000.0001)  ploadbar=  1.00945818686485E+05
 cg2d: Sum(rhs),rhsMax =  -1.05145090334486E+02  1.29631280241449E+00
(PID.TID 0000.0001)  ploadbar=  1.00945535806619E+05
 cg2d: Sum(rhs),rhsMax =  -1.05351335287731E+02  1.29381052817403E+00
(PID.TID 0000.0001)  ploadbar=  1.00945252926752E+05
 cg2d: Sum(rhs),rhsMax =  -1.05534621029382E+02  1.29157728693218E+00
(PID.TID 0000.0001)  ploadbar=  1.00945328229937E+05
 cg2d: Sum(rhs),rhsMax =  -1.05806558453888E+02  1.28824281625253E+00
(PID.TID 0000.0001)  ploadbar=  1.00945403533121E+05
 cg2d: Sum(rhs),rhsMax =  -1.06160736669409E+02  1.28390157581242E+00
(PID.TID 0000.0001)  ploadbar=  1.00945478836305E+05
 cg2d: Sum(rhs),rhsMax =  -1.06618121548179E+02  1.27832325284502E+00
(PID.TID 0000.0001)  ploadbar=  1.00945554139489E+05
 cg2d: Sum(rhs),rhsMax =  -1.07172329932826E+02  1.27161639282851E+00
(PID.TID 0000.0001)  ploadbar=  1.00945629442672E+05
 cg2d: Sum(rhs),rhsMax =  -1.07816871079883E+02  1.26389208427117E+00
(PID.TID 0000.0001)  ploadbar=  1.00945704745857E+05
 cg2d: Sum(rhs),rhsMax =  -1.08485359360826E+02  1.25599561537759E+00
(PID.TID 0000.0001)  ploadbar=  1.00945989908291E+05
 cg2d: Sum(rhs),rhsMax =  -1.09168038383466E+02  1.24803921338693E+00
(PID.TID 0000.0001)  ploadbar=  1.00946275070725E+05
 cg2d: Sum(rhs),rhsMax =  -1.09847669642909E+02  1.24022162807823E+00
(PID.TID 0000.0001)  ploadbar=  1.00946560233159E+05
 cg2d: Sum(rhs),rhsMax =  -1.10524038423305E+02  1.23254659181136E+00
(PID.TID 0000.0001)  ploadbar=  1.00946845395594E+05
 cg2d: Sum(rhs),rhsMax =  -1.11189728667188E+02  1.22509532961519E+00
(PID.TID 0000.0001)  ploadbar=  1.00947130558028E+05
 cg2d: Sum(rhs),rhsMax =  -1.11381533628503E+02  1.22292062451166E+00
(PID.TID 0000.0001)  ploadbar=  1.00947415720462E+05
 cg2d: Sum(rhs),rhsMax =  -1.10721187373665E+02  1.23012731774292E+00
(PID.TID 0000.0001)  ploadbar=  1.00947929982792E+05
 cg2d: Sum(rhs),rhsMax =  -1.09985475958309E+02  1.23823691886233E+00
(PID.TID 0000.0001)  ploadbar=  1.00948444245123E+05
 cg2d: Sum(rhs),rhsMax =  -1.09284872303652E+02  1.24601614854400E+00
(PID.TID 0000.0001)  ploadbar=  1.00948958507453E+05
 cg2d: Sum(rhs),rhsMax =  -1.08596384456755E+02  1.25371490765495E+00
(PID.TID 0000.0001)  ploadbar=  1.00949472769783E+05
 cg2d: Sum(rhs),rhsMax =  -1.07907007841329E+02  1.26148137630805E+00
(PID.TID 0000.0001)  ploadbar=  1.00949987032114E+05
 cg2d: Sum(rhs),rhsMax =  -1.07209152410734E+02  1.26940523504448E+00
(PID.TID 0000.0001)  ploadbar=  1.00950501294444E+05
 cg2d: Sum(rhs),rhsMax =  -1.06534726727244E+02  1.27719789265735E+00
(PID.TID 0000.0001)  ploadbar=  1.00949650248466E+05
 cg2d: Sum(rhs),rhsMax =  -1.05892674999753E+02  1.28473278702949E+00
(PID.TID 0000.0001)  ploadbar=  1.00948799202488E+05
 cg2d: Sum(rhs),rhsMax =  -1.05289860755408E+02  1.29190220607252E+00
(PID.TID 0000.0001)  ploadbar=  1.00947948156510E+05
 cg2d: Sum(rhs),rhsMax =  -1.04725779914681E+02  1.29869696881785E+00
(PID.TID 0000.0001)  ploadbar=  1.00947097110532E+05
 cg2d: Sum(rhs),rhsMax =  -1.04152726116456E+02  1.30570042021592E+00
(PID.TID 0000.0001)  ploadbar=  1.00946246064554E+05
 cg2d: Sum(rhs),rhsMax =  -1.03629275912856E+02  1.31217241554594E+00
(PID.TID 0000.0001)  ploadbar=  1.00945395018576E+05
 cg2d: Sum(rhs),rhsMax =  -1.03320745478996E+02  1.31595536182717E+00
(PID.TID 0000.0001)  ploadbar=  1.00946335233808E+05
 cg2d: Sum(rhs),rhsMax =  -1.02993283974007E+02  1.31998553061429E+00
(PID.TID 0000.0001)  ploadbar=  1.00947275449041E+05
 cg2d: Sum(rhs),rhsMax =  -1.02628163955462E+02  1.32450490027759E+00
(PID.TID 0000.0001)  ploadbar=  1.00948215664273E+05
 cg2d: Sum(rhs),rhsMax =  -1.02209700972266E+02  1.32972624286820E+00
(PID.TID 0000.0001)  ploadbar=  1.00949155879506E+05
 cg2d: Sum(rhs),rhsMax =  -1.01755738047514E+02  1.33542767936840E+00
(PID.TID 0000.0001)  ploadbar=  1.00950096094738E+05
 cg2d: Sum(rhs),rhsMax =  -1.01268679026420E+02  1.34158963591108E+00
(PID.TID 0000.0001)  ploadbar=  1.00951036309971E+05
 cg2d: Sum(rhs),rhsMax =  -1.00800588589541E+02  1.34757861287227E+00
(PID.TID 0000.0001)  ploadbar=  1.00951380250404E+05
 cg2d: Sum(rhs),rhsMax =  -1.00331755437561E+02  1.35364527347523E+00
(PID.TID 0000.0001)  ploadbar=  1.00951724190838E+05
 cg2d: Sum(rhs),rhsMax =  -9.98828324828220E+01  1.35950987297615E+00
(PID.TID 0000.0001)  ploadbar=  1.00952068131271E+05
 cg2d: Sum(rhs),rhsMax =  -9.95667821781006E+01  1.36361915686480E+00
(PID.TID 0000.0001)  ploadbar=  1.00952412071704E+05
 cg2d: Sum(rhs),rhsMax =  -9.94426423420976E+01  1.36513199866978E+00
(PID.TID 0000.0001)  ploadbar=  1.00952756012138E+05
 cg2d: Sum(rhs),rhsMax =  -9.96449268794440E+01  1.36217429977269E+00
(PID.TID 0000.0001)  ploadbar=  1.00953099952571E+05
 cg2d: Sum(rhs),rhsMax =  -9.96159972860722E+01  1.36237314698132E+00
(PID.TID 0000.0001)  ploadbar=  1.00953393558854E+05
 cg2d: Sum(rhs),rhsMax =  -9.98616481001402E+01  1.35880344834050E+00
(PID.TID 0000.0001)  ploadbar=  1.00953687165136E+05
 cg2d: Sum(rhs),rhsMax =  -1.00204565631356E+02  1.35390151952904E+00
(PID.TID 0000.0001)  ploadbar=  1.00953980771419E+05
 cg2d: Sum(rhs),rhsMax =  -1.00502415791666E+02  1.34959955264817E+00
(PID.TID 0000.0001)  ploadbar=  1.00954274377701E+05
 cg2d: Sum(rhs),rhsMax =  -1.00754117778784E+02  1.34589970480108E+00
(PID.TID 0000.0001)  ploadbar=  1.00954567983984E+05
 cg2d: Sum(rhs),rhsMax =  -1.00964463886295E+02  1.34272860426356E+00
(PID.TID 0000.0001)  ploadbar=  1.00954861590267E+05
 cg2d: Sum(rhs),rhsMax =  -1.01195423936835E+02  1.33935866083084E+00
(PID.TID 0000.0001)  ploadbar=  1.00954747697708E+05
 cg2d: Sum(rhs),rhsMax =  -1.01444180875411E+02  1.33582045290471E+00
(PID.TID 0000.0001)  ploadbar=  1.00954633805150E+05
 cg2d: Sum(rhs),rhsMax =  -1.01714138802035E+02  1.33206171287382E+00
(PID.TID 0000.0001)  ploadbar=  1.00954519912592E+05
 cg2d: Sum(rhs),rhsMax =  -1.02009516567804E+02  1.32802528929231E+00
(PID.TID 0000.0001)  ploadbar=  1.00954406020033E+05
 cg2d: Sum(rhs),rhsMax =  -1.02302101770167E+02  1.32407848726120E+00
(PID.TID 0000.0001)  ploadbar=  1.00954292127475E+05
 cg2d: Sum(rhs),rhsMax =  -1.02662658528692E+02  1.31930815912632E+00
(PID.TID 0000.0001)  ploadbar=  1.00954178234917E+05
 cg2d: Sum(rhs),rhsMax =  -1.03171367295321E+02  1.31268685805446E+00
(PID.TID 0000.0001)  ploadbar=  1.00954973970788E+05
 cg2d: Sum(rhs),rhsMax =  -1.03682372971758E+02  1.30609762299426E+00
(PID.TID 0000.0001)  ploadbar=  1.00955769706659E+05
 cg2d: Sum(rhs),rhsMax =  -1.04188900543440E+02  1.29962216726923E+00
(PID.TID 0000.0001)  ploadbar=  1.00956565442530E+05
 cg2d: Sum(rhs),rhsMax =  -1.04680368258197E+02  1.29338508755755E+00
(PID.TID 0000.0001)  ploadbar=  1.00957361178401E+05
 cg2d: Sum(rhs),rhsMax =  -1.05179092529219E+02  1.28710160403030E+00
(PID.TID 0000.0001)  ploadbar=  1.00958156914273E+05
 cg2d: Sum(rhs),rhsMax =  -1.05673066623345E+02  1.28091615891144E+00
(PID.TID 0000.0001)  ploadbar=  1.00958952650144E+05
 cg2d: Sum(rhs),rhsMax =  -1.06092793906633E+02  1.27570825392115E+00
(PID.TID 0000.0001)  ploadbar=  1.00960277052101E+05
 cg2d: Sum(rhs),rhsMax =  -1.06505987571465E+02  1.27064187639634E+00
(PID.TID 0000.0001)  ploadbar=  1.00961601454058E+05
 cg2d: Sum(rhs),rhsMax =  -1.06973122995041E+02  1.26499869688730E+00
(PID.TID 0000.0001)  ploadbar=  1.00962925856015E+05
 cg2d: Sum(rhs),rhsMax =  -1.07544396116538E+02  1.25820609818314E+00
(PID.TID 0000.0001)  ploadbar=  1.00964250257972E+05
 cg2d: Sum(rhs),rhsMax =  -1.08023622013645E+02  1.25257088833278E+00
(PID.TID 0000.0001)  ploadbar=  1.00965574659928E+05
 cg2d: Sum(rhs),rhsMax =  -1.08447943718074E+02  1.24762576728023E+00
(PID.TID 0000.0001)  ploadbar=  1.00966899061885E+05
 cg2d: Sum(rhs),rhsMax =  -1.08619643659504E+02  1.24559391364317E+00
(PID.TID 0000.0001)  ploadbar=  1.00967807644078E+05
 cg2d: Sum(rhs),rhsMax =  -1.08504340815051E+02  1.24683067336816E+00
(PID.TID 0000.0001)  ploadbar=  1.00968716226271E+05
 cg2d: Sum(rhs),rhsMax =  -1.08575718074931E+02  1.24588788868974E+00
(PID.TID 0000.0001)  ploadbar=  1.00969624808464E+05
 cg2d: Sum(rhs),rhsMax =  -1.08933891301912E+02  1.24162951780931E+00
(PID.TID 0000.0001)  ploadbar=  1.00970533390657E+05
 cg2d: Sum(rhs),rhsMax =  -1.09319362801947E+02  1.23704954090243E+00
(PID.TID 0000.0001)  ploadbar=  1.00971441972850E+05
 cg2d: Sum(rhs),rhsMax =  -1.09734841173773E+02  1.23212519005931E+00
(PID.TID 0000.0001)  ploadbar=  1.00972350555043E+05
 cg2d: Sum(rhs),rhsMax =  -1.10057566391743E+02  1.22831019564589E+00
(PID.TID 0000.0001)  ploadbar=  1.00972270733324E+05
 cg2d: Sum(rhs),rhsMax =  -1.10394773257458E+02  1.22438414746367E+00
(PID.TID 0000.0001)  ploadbar=  1.00972190911604E+05
 cg2d: Sum(rhs),rhsMax =  -1.10741869850330E+02  1.22039199887471E+00
(PID.TID 0000.0001)  ploadbar=  1.00972111089885E+05
 cg2d: Sum(rhs),rhsMax =  -1.11093191196505E+02  1.21639760722321E+00
(PID.TID 0000.0001)  ploadbar=  1.00972031268165E+05
 cg2d: Sum(rhs),rhsMax =  -1.11216794029499E+02  1.21492653790473E+00
(PID.TID 0000.0001)  ploadbar=  1.00971951446446E+05
 cg2d: Sum(rhs),rhsMax =  -1.09055407807598E+02  1.23889538750465E+00
(PID.TID 0000.0001)  ploadbar=  1.00971871624726E+05
 cg2d: Sum(rhs),rhsMax =  -1.07172616449350E+02  1.26054388055504E+00
(PID.TID 0000.0001)  ploadbar=  1.00972024127190E+05
 cg2d: Sum(rhs),rhsMax =  -1.05450173349983E+02  1.28100527173866E+00
(PID.TID 0000.0001)  ploadbar=  1.00972176629654E+05
 cg2d: Sum(rhs),rhsMax =  -1.03887637987866E+02  1.30012896257072E+00
(PID.TID 0000.0001)  ploadbar=  1.00972329132117E+05
 cg2d: Sum(rhs),rhsMax =  -1.02453276907124E+02  1.31816862834692E+00
(PID.TID 0000.0001)  ploadbar=  1.00972481634581E+05
 cg2d: Sum(rhs),rhsMax =  -1.01095898223507E+02  1.33568057913054E+00
(PID.TID 0000.0001)  ploadbar=  1.00972634137045E+05
 cg2d: Sum(rhs),rhsMax =  -9.97721343420025E+01  1.35318859145671E+00
(PID.TID 0000.0001)  ploadbar=  1.00972786639508E+05
 cg2d: Sum(rhs),rhsMax =  -9.84862973364132E+01  1.37066586087578E+00
(PID.TID 0000.0001)  ploadbar=  1.00973311241163E+05
 cg2d: Sum(rhs),rhsMax =  -9.72016442333168E+01  1.38860714746876E+00
(PID.TID 0000.0001)  ploadbar=  1.00973835842817E+05
 cg2d: Sum(rhs),rhsMax =  -9.59648479218648E+01  1.40634431585093E+00
(PID.TID 0000.0001)  ploadbar=  1.00974360444471E+05
 cg2d: Sum(rhs),rhsMax =  -9.47977342611060E+01  1.42351655284325E+00
(PID.TID 0000.0001)  ploadbar=  1.00974885046125E+05
 cg2d: Sum(rhs),rhsMax =  -9.37749477198320E+01  1.43891968895870E+00
(PID.TID 0000.0001)  ploadbar=  1.00975409647780E+05
 cg2d: Sum(rhs),rhsMax =  -9.29982857494161E+01  1.45082006217494E+00
(PID.TID 0000.0001)  ploadbar=  1.00975934249434E+05
 cg2d: Sum(rhs),rhsMax =  -9.24051881101462E+01  1.45999478027424E+00
(PID.TID 0000.0001)  ploadbar=  1.00975674405155E+05
 cg2d: Sum(rhs),rhsMax =  -9.20188926967900E+01  1.46595507747612E+00
(PID.TID 0000.0001)  ploadbar=  1.00975414560876E+05
 cg2d: Sum(rhs),rhsMax =  -9.17534567925364E+01  1.46998940094474E+00
(PID.TID 0000.0001)  ploadbar=  1.00975154716597E+05
 cg2d: Sum(rhs),rhsMax =  -9.15284454662895E+01  1.47335424288293E+00
(PID.TID 0000.0001)  ploadbar=  1.00974894872319E+05
 cg2d: Sum(rhs),rhsMax =  -9.12755777335589E+01  1.47714305589857E+00
(PID.TID 0000.0001)  ploadbar=  1.00974635028040E+05
 cg2d: Sum(rhs),rhsMax =  -9.09536915094279E+01  1.48203291751454E+00
(PID.TID 0000.0001)  ploadbar=  1.00974375183761E+05
 cg2d: Sum(rhs),rhsMax =  -9.05636922207144E+01  1.48812063340750E+00
(PID.TID 0000.0001)  ploadbar=  1.00973859155630E+05
 cg2d: Sum(rhs),rhsMax =  -8.99164391893907E+01  1.49856977790562E+00
(PID.TID 0000.0001)  ploadbar=  1.00973343127500E+05
 cg2d: Sum(rhs),rhsMax =  -8.92316195861253E+01  1.50982834805734E+00
(PID.TID 0000.0001)  ploadbar=  1.00972827099369E+05
 cg2d: Sum(rhs),rhsMax =  -8.85892977693134E+01  1.52054880181338E+00
(PID.TID 0000.0001)  ploadbar=  1.00972311071239E+05
 cg2d: Sum(rhs),rhsMax =  -8.80711330364840E+01  1.52928291951046E+00
(PID.TID 0000.0001)  ploadbar=  1.00971795043108E+05
 cg2d: Sum(rhs),rhsMax =  -8.77335544761287E+01  1.53496935948745E+00
(PID.TID 0000.0001)  ploadbar=  1.00971279014977E+05
 cg2d: Sum(rhs),rhsMax =  -8.76014108608297E+01  1.53707029027572E+00
(PID.TID 0000.0001)  ploadbar=  1.00971054753039E+05
 cg2d: Sum(rhs),rhsMax =  -8.59226015504795E+01  1.56685955055688E+00
(PID.TID 0000.0001)  ploadbar=  1.00970830491100E+05
 cg2d: Sum(rhs),rhsMax =  -8.30205952623581E+01  1.62134943180352E+00
(PID.TID 0000.0001)  ploadbar=  1.00970606229161E+05
 cg2d: Sum(rhs),rhsMax =  -8.00589918518049E+01  1.68100253274514E+00
(PID.TID 0000.0001)  ploadbar=  1.00970381967223E+05
 cg2d: Sum(rhs),rhsMax =  -7.70762160169144E+01  1.74568260479477E+00
(PID.TID 0000.0001)  ploadbar=  1.00970157705284E+05
 cg2d: Sum(rhs),rhsMax =  -7.41246231474548E+01  1.81476729243229E+00
(PID.TID 0000.0001)  ploadbar=  1.00969933443346E+05
 cg2d: Sum(rhs),rhsMax =  -7.16880426295125E+01  1.87603617088118E+00
(PID.TID 0000.0001)  ploadbar=  1.00971014915791E+05
 cg2d: Sum(rhs),rhsMax =  -6.97133955855342E+01  1.92876883006971E+00
(PID.TID 0000.0001)  ploadbar=  1.00972096388236E+05
 cg2d: Sum(rhs),rhsMax =  -6.81716704438775E+01  1.97199099837764E+00
(PID.TID 0000.0001)  ploadbar=  1.00973177860681E+05
 cg2d: Sum(rhs),rhsMax =  -6.69347915739757E+01  2.00804710238682E+00
(PID.TID 0000.0001)  ploadbar=  1.00974259333126E+05
 cg2d: Sum(rhs),rhsMax =  -6.59032909203738E+01  2.03910920221437E+00
(PID.TID 0000.0001)  ploadbar=  1.00975340805571E+05
 cg2d: Sum(rhs),rhsMax =  -6.50137420092785E+01  2.06664709894531E+00
(PID.TID 0000.0001)  ploadbar=  1.00976422278016E+05
 cg2d: Sum(rhs),rhsMax =  -6.41438235667367E+01  2.09426647385274E+00
(PID.TID 0000.0001)  ploadbar=  1.00977143487227E+05
 cg2d: Sum(rhs),rhsMax =  -6.32941124488658E+01  2.12191466444795E+00
(PID.TID 0000.0001)  ploadbar=  1.00977864696437E+05
 cg2d: Sum(rhs),rhsMax =  -6.24608214568809E+01  2.14968611775624E+00
(PID.TID 0000.0001)  ploadbar=  1.00978585905648E+05
 cg2d: Sum(rhs),rhsMax =  -6.16512550416070E+01  2.17730280110004E+00
(PID.TID 0000.0001)  ploadbar=  1.00979307114858E+05
 cg2d: Sum(rhs),rhsMax =  -6.08865269375922E+01  2.20396226681245E+00
(PID.TID 0000.0001)  ploadbar=  1.00980028324068E+05
 cg2d: Sum(rhs),rhsMax =  -6.01856689594113E+01  2.22886130094899E+00
(PID.TID 0000.0001)  ploadbar=  1.00980749533279E+05
 cg2d: Sum(rhs),rhsMax =  -5.96534364425921E+01  2.24802859010531E+00
(PID.TID 0000.0001)  ploadbar=  1.00982066340366E+05
 cg2d: Sum(rhs),rhsMax =  -5.92923523750916E+01  2.26103580498045E+00
(PID.TID 0000.0001)  ploadbar=  1.00983383147453E+05
 cg2d: Sum(rhs),rhsMax =  -5.91050218480435E+01  2.26754254861417E+00
(PID.TID 0000.0001)  ploadbar=  1.00984699954541E+05
 cg2d: Sum(rhs),rhsMax =  -5.90509448603128E+01  2.26897586153860E+00
(PID.TID 0000.0001)  ploadbar=  1.00986016761628E+05
 cg2d: Sum(rhs),rhsMax =  -5.90957871143120E+01  2.26662465385589E+00
(PID.TID 0000.0001)  ploadbar=  1.00987333568715E+05
 cg2d: Sum(rhs),rhsMax =  -5.92205076185300E+01  2.26123355206670E+00
(PID.TID 0000.0001)  ploadbar=  1.00988650375802E+05
 cg2d: Sum(rhs),rhsMax =  -5.93914470356926E+01  2.25410133561302E+00
(PID.TID 0000.0001)  ploadbar=  1.00989675122012E+05
 cg2d: Sum(rhs),rhsMax =  -5.96043901685960E+01  2.24540750785337E+00
(PID.TID 0000.0001)  ploadbar=  1.00990699868223E+05
 cg2d: Sum(rhs),rhsMax =  -5.98572504950369E+01  2.23526495763824E+00
(PID.TID 0000.0001)  ploadbar=  1.00991724614433E+05
 cg2d: Sum(rhs),rhsMax =  -6.01562220497479E+01  2.22348066720753E+00
(PID.TID 0000.0001)  ploadbar=  1.00992749360643E+05
 cg2d: Sum(rhs),rhsMax =  -6.05061125533176E+01  2.20992691204549E+00
(PID.TID 0000.0001)  ploadbar=  1.00993774106854E+05
 cg2d: Sum(rhs),rhsMax =  -6.09159302736448E+01  2.19433332424429E+00
(PID.TID 0000.0001)  ploadbar=  1.00994798853064E+05
 cg2d: Sum(rhs),rhsMax =  -6.13779567431491E+01  2.17711594242168E+00
(PID.TID 0000.0001)  ploadbar=  1.00995495367331E+05
 cg2d: Sum(rhs),rhsMax =  -6.18826416144939E+01  2.15867980096555E+00
(PID.TID 0000.0001)  ploadbar=  1.00996191881597E+05
 cg2d: Sum(rhs),rhsMax =  -6.24244320188993E+01  2.13928183516193E+00
(PID.TID 0000.0001)  ploadbar=  1.00996888395864E+05
 cg2d: Sum(rhs),rhsMax =  -6.30095419826583E+01  2.11877290499299E+00
(PID.TID 0000.0001)  ploadbar=  1.00997584910131E+05
 cg2d: Sum(rhs),rhsMax =  -6.36438416978277E+01  2.09703411905600E+00
(PID.TID 0000.0001)  ploadbar=  1.00998281424397E+05
 cg2d: Sum(rhs),rhsMax =  -6.43354248248097E+01  2.07387631779016E+00
(PID.TID 0000.0001)  ploadbar=  1.00998977938664E+05
 cg2d: Sum(rhs),rhsMax =  -6.45959212473610E+01  2.06488492787136E+00
(PID.TID 0000.0001)  ploadbar=  1.01000270659489E+05
 cg2d: Sum(rhs),rhsMax =  -6.48927747022740E+01  2.05478909480051E+00
(PID.TID 0000.0001)  ploadbar=  1.01001563380314E+05
 cg2d: Sum(rhs),rhsMax =  -6.52340528779618E+01  2.04336069891265E+00
(PID.TID 0000.0001)  ploadbar=  1.01002856101139E+05
 cg2d: Sum(rhs),rhsMax =  -6.56222357834037E+01  2.03056333772934E+00
(PID.TID 0000.0001)  ploadbar=  1.01004148821963E+05
 cg2d: Sum(rhs),rhsMax =  -6.60598635898431E+01  2.01636913318048E+00
(PID.TID 0000.0001)  ploadbar=  1.01005441542788E+05
 cg2d: Sum(rhs),rhsMax =  -6.65458952806934E+01  2.00086973957135E+00
(PID.TID 0000.0001)  ploadbar=  1.01006734263613E+05
 cg2d: Sum(rhs),rhsMax =  -6.70793043635529E+01  1.98428218400392E+00
(PID.TID 0000.0001)  ploadbar=  1.01008322511664E+05
 cg2d: Sum(rhs),rhsMax =  -6.76538322493045E+01  1.96683490216912E+00
(PID.TID 0000.0001)  ploadbar=  1.01009910759714E+05
 cg2d: Sum(rhs),rhsMax =  -6.82647671386017E+01  1.94870323694814E+00
(PID.TID 0000.0001)  ploadbar=  1.01011499007764E+05
 cg2d: Sum(rhs),rhsMax =  -6.89143797813052E+01  1.92986601099544E+00
(PID.TID 0000.0001)  ploadbar=  1.01013087255814E+05
 cg2d: Sum(rhs),rhsMax =  -6.96029028878667E+01  1.91036984338395E+00
(PID.TID 0000.0001)  ploadbar=  1.01014675503865E+05
 cg2d: Sum(rhs),rhsMax =  -7.03316342920568E+01  1.89023002584644E+00
(PID.TID 0000.0001)  ploadbar=  1.01016263751915E+05
 cg2d: Sum(rhs),rhsMax =  -7.10836524141401E+01  1.86989911770360E+00
(PID.TID 0000.0001)  ploadbar=  1.01016954902400E+05
 cg2d: Sum(rhs),rhsMax =  -7.18594953048496E+01  1.84937532284929E+00
(PID.TID 0000.0001)  ploadbar=  1.01017646052886E+05
 cg2d: Sum(rhs),rhsMax =  -7.26470650431002E+01  1.82898660356985E+00
(PID.TID 0000.0001)  ploadbar=  1.01018337203371E+05
 cg2d: Sum(rhs),rhsMax =  -7.34459671512761E+01  1.80874415325165E+00
(PID.TID 0000.0001)  ploadbar=  1.01019028353856E+05
 cg2d: Sum(rhs),rhsMax =  -7.42581641725781E+01  1.78859927778412E+00
(PID.TID 0000.0001)  ploadbar=  1.01019719504341E+05
 cg2d: Sum(rhs),rhsMax =  -7.50847580723876E+01  1.76852219739606E+00
(PID.TID 0000.0001)  ploadbar=  1.01020410654827E+05
 cg2d: Sum(rhs),rhsMax =  -7.58886354656048E+01  1.74942594727530E+00
(PID.TID 0000.0001)  ploadbar=  1.01021088440340E+05
 cg2d: Sum(rhs),rhsMax =  -7.66987173220253E+01  1.73060642698330E+00
(PID.TID 0000.0001)  ploadbar=  1.01021766225853E+05
 cg2d: Sum(rhs),rhsMax =  -7.75099790720070E+01  1.71217285049881E+00
(PID.TID 0000.0001)  ploadbar=  1.01022444011366E+05
 cg2d: Sum(rhs),rhsMax =  -7.83173622348589E+01  1.69422624738839E+00
(PID.TID 0000.0001)  ploadbar=  1.01023121796879E+05
 cg2d: Sum(rhs),rhsMax =  -7.91153784994506E+01  1.67686059244943E+00
(PID.TID 0000.0001)  ploadbar=  1.01023799582392E+05
 cg2d: Sum(rhs),rhsMax =  -7.99011666841433E+01  1.66010251800000E+00
(PID.TID 0000.0001)  ploadbar=  1.01024477367905E+05
 cg2d: Sum(rhs),rhsMax =  -8.06444816167807E+01  1.64452643900315E+00
(PID.TID 0000.0001)  ploadbar=  1.01024456464383E+05
 cg2d: Sum(rhs),rhsMax =  -8.13736449089754E+01  1.62949857374634E+00
(PID.TID 0000.0001)  ploadbar=  1.01024435560862E+05
 cg2d: Sum(rhs),rhsMax =  -8.17860564767114E+01  1.62096461221246E+00
(PID.TID 0000.0001)  ploadbar=  1.01024414657341E+05
 cg2d: Sum(rhs),rhsMax =  -8.19126459815187E+01  1.61811267770419E+00
(PID.TID 0000.0001)  ploadbar=  1.01024393753820E+05
 cg2d: Sum(rhs),rhsMax =  -8.23660697818285E+01  1.60882961024990E+00
(PID.TID 0000.0001)  ploadbar=  1.01024372850299E+05
 cg2d: Sum(rhs),rhsMax =  -8.28408509870168E+01  1.59920629368939E+00
(PID.TID 0000.0001)  ploadbar=  1.01024351946778E+05
 cg2d: Sum(rhs),rhsMax =  -8.33494342342769E+01  1.58911049621703E+00
(PID.TID 0000.0001)  ploadbar=  1.01023824409779E+05
 cg2d: Sum(rhs),rhsMax =  -8.30179791442439E+01  1.59516902414836E+00
(PID.TID 0000.0001)  ploadbar=  1.01023296872780E+05
 cg2d: Sum(rhs),rhsMax =  -8.24598984773860E+01  1.60572093921381E+00
(PID.TID 0000.0001)  ploadbar=  1.01022769335781E+05
 cg2d: Sum(rhs),rhsMax =  -8.19167612908108E+01  1.61615866668639E+00
(PID.TID 0000.0001)  ploadbar=  1.01022241798783E+05
 cg2d: Sum(rhs),rhsMax =  -8.14084257570177E+01  1.62607483367032E+00
(PID.TID 0000.0001)  ploadbar=  1.01021714261784E+05
 cg2d: Sum(rhs),rhsMax =  -8.09483338168920E+01  1.63517737403900E+00
(PID.TID 0000.0001)  ploadbar=  1.01021186724785E+05
 cg2d: Sum(rhs),rhsMax =  -8.05609838265416E+01  1.64287607596233E+00
(PID.TID 0000.0001)  ploadbar=  1.01021043390503E+05
 cg2d: Sum(rhs),rhsMax =  -8.01753640448976E+01  1.65058423046109E+00
(PID.TID 0000.0001)  ploadbar=  1.01020900056222E+05
 cg2d: Sum(rhs),rhsMax =  -7.97592488885386E+01  1.65897083271705E+00
(PID.TID 0000.0001)  ploadbar=  1.01020756721940E+05
 cg2d: Sum(rhs),rhsMax =  -7.92889862371005E+01  1.66855435819479E+00
(PID.TID 0000.0001)  ploadbar=  1.01020613387659E+05
 cg2d: Sum(rhs),rhsMax =  -7.85382600034167E+01  1.68421067011057E+00
(PID.TID 0000.0001)  ploadbar=  1.01020470053377E+05
 cg2d: Sum(rhs),rhsMax =  -7.72389890069963E+01  1.71220145591339E+00
(PID.TID 0000.0001)  ploadbar=  1.01020326719096E+05
 cg2d: Sum(rhs),rhsMax =  -7.60124130212454E+01  1.73950696828696E+00
(PID.TID 0000.0001)  ploadbar=  1.01019334635241E+05
 cg2d: Sum(rhs),rhsMax =  -7.48713543563340E+01  1.76570749350019E+00
(PID.TID 0000.0001)  ploadbar=  1.01018342551386E+05
 cg2d: Sum(rhs),rhsMax =  -7.38261620356016E+01  1.79041109279794E+00
(PID.TID 0000.0001)  ploadbar=  1.01017350467532E+05
 cg2d: Sum(rhs),rhsMax =  -7.29031176649626E+01  1.81280268641775E+00
(PID.TID 0000.0001)  ploadbar=  1.01016358383677E+05
 cg2d: Sum(rhs),rhsMax =  -7.21228232537176E+01  1.83214852002477E+00
(PID.TID 0000.0001)  ploadbar=  1.01015366299822E+05
 cg2d: Sum(rhs),rhsMax =  -7.06594267577182E+01  1.86982167282744E+00
(PID.TID 0000.0001)  ploadbar=  1.01014374215968E+05
 cg2d: Sum(rhs),rhsMax =  -7.21226499402977E+01  1.83160659796329E+00
(PID.TID 0000.0001)  ploadbar=  1.01012616855527E+05
 cg2d: Sum(rhs),rhsMax =  -7.54033873773620E+01  1.75162560733001E+00
(PID.TID 0000.0001)  ploadbar=  1.01010859495087E+05
 cg2d: Sum(rhs),rhsMax =  -7.89080266719494E+01  1.67352265591409E+00
(PID.TID 0000.0001)  ploadbar=  1.01009102134647E+05
 cg2d: Sum(rhs),rhsMax =  -8.22020513569437E+01  1.60613458682135E+00
(PID.TID 0000.0001)  ploadbar=  1.01007344774207E+05
 cg2d: Sum(rhs),rhsMax =  -8.24323945991431E+01  1.60128605121830E+00
(PID.TID 0000.0001)  ploadbar=  1.01005587413767E+05
 cg2d: Sum(rhs),rhsMax =  -8.17448285444066E+01  1.61435642377820E+00
(PID.TID 0000.0001)  ploadbar=  1.01003830053326E+05
 cg2d: Sum(rhs),rhsMax =  -8.10544166776048E+01  1.62777961036184E+00
(PID.TID 0000.0001)  ploadbar=  1.01002769355306E+05
 cg2d: Sum(rhs),rhsMax =  -8.03498041618332E+01  1.64178908328006E+00
(PID.TID 0000.0001)  ploadbar=  1.01001708657286E+05
 cg2d: Sum(rhs),rhsMax =  -7.96366084554406E+01  1.65627821293860E+00
(PID.TID 0000.0001)  ploadbar=  1.01000647959266E+05
 cg2d: Sum(rhs),rhsMax =  -7.89177391328709E+01  1.67119333893366E+00
(PID.TID 0000.0001)  ploadbar=  1.00999587261246E+05
 cg2d: Sum(rhs),rhsMax =  -7.81960175585604E+01  1.68648775636203E+00
(PID.TID 0000.0001)  ploadbar=  1.00998526563226E+05
 cg2d: Sum(rhs),rhsMax =  -7.74773475772269E+01  1.70204289537358E+00
(PID.TID 0000.0001)  ploadbar=  1.00997465865206E+05
 cg2d: Sum(rhs),rhsMax =  -7.67774227928591E+01  1.71746067219316E+00
(PID.TID 0000.0001)  ploadbar=  1.00996703407051E+05
 cg2d: Sum(rhs),rhsMax =  -7.60998647460904E+01  1.73263600498469E+00
(PID.TID 0000.0001)  ploadbar=  1.00995940948895E+05
 cg2d: Sum(rhs),rhsMax =  -7.54544600871073E+01  1.74732238932798E+00
(PID.TID 0000.0001)  ploadbar=  1.00995178490740E+05
 cg2d: Sum(rhs),rhsMax =  -7.48464549036858E+01  1.76136305458332E+00
(PID.TID 0000.0001)  ploadbar=  1.00994416032584E+05
 cg2d: Sum(rhs),rhsMax =  -7.42828495979098E+01  1.77455064578515E+00
(PID.TID 0000.0001)  ploadbar=  1.00993653574429E+05
 cg2d: Sum(rhs),rhsMax =  -7.37673644078781E+01  1.78674719478076E+00
(PID.TID 0000.0001)  ploadbar=  1.00992891116274E+05
 cg2d: Sum(rhs),rhsMax =  -7.33055544843977E+01  1.79781878448583E+00
(PID.TID 0000.0001)  ploadbar=  1.00993797742695E+05
 cg2d: Sum(rhs),rhsMax =  -7.28872483715743E+01  1.80796243067892E+00
(PID.TID 0000.0001)  ploadbar=  1.00994704369117E+05
 cg2d: Sum(rhs),rhsMax =  -7.25088898707682E+01  1.81723424433350E+00
(PID.TID 0000.0001)  ploadbar=  1.00995610995539E+05
 cg2d: Sum(rhs),rhsMax =  -7.21661355095547E+01  1.82571569555434E+00
(PID.TID 0000.0001)  ploadbar=  1.00996517621960E+05
 cg2d: Sum(rhs),rhsMax =  -7.18555774702886E+01  1.83346492345359E+00
(PID.TID 0000.0001)  ploadbar=  1.00997424248382E+05
 cg2d: Sum(rhs),rhsMax =  -7.15752664791356E+01  1.84049559943543E+00
(PID.TID 0000.0001)  ploadbar=  1.00998330874804E+05
 cg2d: Sum(rhs),rhsMax =  -7.13285644181901E+01  1.84667042557175E+00
(PID.TID 0000.0001)  ploadbar=  1.00998237709259E+05
 cg2d: Sum(rhs),rhsMax =  -7.11150447008227E+01  1.85197497272804E+00
(PID.TID 0000.0001)  ploadbar=  1.00998144543715E+05
 cg2d: Sum(rhs),rhsMax =  -7.09283149909445E+01  1.85655283647960E+00
(PID.TID 0000.0001)  ploadbar=  1.00998051378170E+05
 cg2d: Sum(rhs),rhsMax =  -7.07634970311964E+01  1.86051771034775E+00
(PID.TID 0000.0001)  ploadbar=  1.00997958212626E+05
 cg2d: Sum(rhs),rhsMax =  -7.06134907348657E+01  1.86404753180429E+00
(PID.TID 0000.0001)  ploadbar=  1.00997865047082E+05
 cg2d: Sum(rhs),rhsMax =  -7.04715269179745E+01  1.86731986052114E+00
(PID.TID 0000.0001)  ploadbar=  1.00997771881537E+05
 cg2d: Sum(rhs),rhsMax =  -7.03325986690937E+01  1.87059964874674E+00
(PID.TID 0000.0001)  ploadbar=  1.00996291127142E+05
 cg2d: Sum(rhs),rhsMax =  -7.01844394183922E+01  1.87419745021463E+00
(PID.TID 0000.0001)  ploadbar=  1.00994810372747E+05
 cg2d: Sum(rhs),rhsMax =  -7.00221723216581E+01  1.87823278235076E+00
(PID.TID 0000.0001)  ploadbar=  1.00993329618352E+05
 cg2d: Sum(rhs),rhsMax =  -6.98467494514756E+01  1.88267870821368E+00
(PID.TID 0000.0001)  ploadbar=  1.00991848863957E+05
 cg2d: Sum(rhs),rhsMax =  -6.96607976314648E+01  1.88747101001869E+00
(PID.TID 0000.0001)  ploadbar=  1.00990368109561E+05
 cg2d: Sum(rhs),rhsMax =  -6.91971891943205E+01  1.89991584398444E+00
(PID.TID 0000.0001)  ploadbar=  1.00988887355166E+05
 cg2d: Sum(rhs),rhsMax =  -6.80770793212439E+01  1.93097626614363E+00
(PID.TID 0000.0001)  ploadbar=  1.00989207657328E+05
 cg2d: Sum(rhs),rhsMax =  -6.70887312521748E+01  1.95921788802529E+00
(PID.TID 0000.0001)  ploadbar=  1.00989527959490E+05
 cg2d: Sum(rhs),rhsMax =  -6.62136208514759E+01  1.98489981009742E+00
(PID.TID 0000.0001)  ploadbar=  1.00989848261652E+05
 cg2d: Sum(rhs),rhsMax =  -6.54182681752255E+01  2.00880851033910E+00
(PID.TID 0000.0001)  ploadbar=  1.00990168563814E+05
 cg2d: Sum(rhs),rhsMax =  -6.46709660414797E+01  2.03177860958051E+00
(PID.TID 0000.0001)  ploadbar=  1.00990488865977E+05
 cg2d: Sum(rhs),rhsMax =  -6.39571933675768E+01  2.05418945969989E+00
(PID.TID 0000.0001)  ploadbar=  1.00990809168139E+05
 cg2d: Sum(rhs),rhsMax =  -6.32716836420581E+01  2.07621401134022E+00
(PID.TID 0000.0001)  ploadbar=  1.00992174266152E+05
 cg2d: Sum(rhs),rhsMax =  -6.26143680855232E+01  2.09779936911655E+00
(PID.TID 0000.0001)  ploadbar=  1.00993539364164E+05
 cg2d: Sum(rhs),rhsMax =  -6.31208441441606E+01  2.08078161303890E+00
(PID.TID 0000.0001)  ploadbar=  1.00994904462177E+05
 cg2d: Sum(rhs),rhsMax =  -6.38402276493707E+01  2.05717636294962E+00
(PID.TID 0000.0001)  ploadbar=  1.00996269560190E+05
 cg2d: Sum(rhs),rhsMax =  -6.45201205545761E+01  2.03536512151526E+00
(PID.TID 0000.0001)  ploadbar=  1.00997634658203E+05
 cg2d: Sum(rhs),rhsMax =  -6.51549441618404E+01  2.01540678607082E+00
(PID.TID 0000.0001)  ploadbar=  1.00998999756216E+05
 cg2d: Sum(rhs),rhsMax =  -6.57152999470165E+01  1.99805107404008E+00
(PID.TID 0000.0001)  ploadbar=  1.00999999123428E+05
 cg2d: Sum(rhs),rhsMax =  -6.61959423665407E+01  1.98331447608598E+00
(PID.TID 0000.0001)  ploadbar=  1.01000998490639E+05
 cg2d: Sum(rhs),rhsMax =  -6.65957106931726E+01  1.97111034489944E+00
(PID.TID 0000.0001)  ploadbar=  1.01001997857851E+05
 cg2d: Sum(rhs),rhsMax =  -6.64257678264243E+01  1.97577887505317E+00
(PID.TID 0000.0001)  ploadbar=  1.01002997225063E+05
 cg2d: Sum(rhs),rhsMax =  -6.62223557067737E+01  1.98139801869983E+00
(PID.TID 0000.0001)  ploadbar=  1.01003996592274E+05
 cg2d: Sum(rhs),rhsMax =  -6.60151165468434E+01  1.98709376547263E+00
(PID.TID 0000.0001)  ploadbar=  1.01004995959486E+05
 cg2d: Sum(rhs),rhsMax =  -6.58062606278255E+01  1.99296921549952E+00
(PID.TID 0000.0001)  ploadbar=  1.01006140353744E+05
 cg2d: Sum(rhs),rhsMax =  -6.55987616755388E+01  1.99892588065976E+00
(PID.TID 0000.0001)  ploadbar=  1.01007284748002E+05
 cg2d: Sum(rhs),rhsMax =  -6.53961660111529E+01  2.00484176329186E+00
(PID.TID 0000.0001)  ploadbar=  1.01008429142259E+05
 cg2d: Sum(rhs),rhsMax =  -6.52047071151711E+01  2.01051903037351E+00
(PID.TID 0000.0001)  ploadbar=  1.01009573536517E+05
 cg2d: Sum(rhs),rhsMax =  -6.50315061418357E+01  2.01572593864691E+00
(PID.TID 0000.0001)  ploadbar=  1.01010717930775E+05
 cg2d: Sum(rhs),rhsMax =  -6.48810109479768E+01  2.02030366608539E+00
(PID.TID 0000.0001)  ploadbar=  1.01011862325033E+05
 cg2d: Sum(rhs),rhsMax =  -6.47510682636865E+01  2.02426955603452E+00
(PID.TID 0000.0001)  ploadbar=  1.01011244883130E+05
 cg2d: Sum(rhs),rhsMax =  -6.46437702719609E+01  2.02754191656104E+00
(PID.TID 0000.0001)  ploadbar=  1.01010627441227E+05
 cg2d: Sum(rhs),rhsMax =  -6.45592587648314E+01  2.03010485570776E+00
(PID.TID 0000.0001)  ploadbar=  1.01010009999324E+05
 cg2d: Sum(rhs),rhsMax =  -6.44944937073490E+01  2.03204581646283E+00
(PID.TID 0000.0001)  ploadbar=  1.01009392557421E+05
 cg2d: Sum(rhs),rhsMax =  -6.44462807464674E+01  2.03345841473640E+00
(PID.TID 0000.0001)  ploadbar=  1.01008775115519E+05
 cg2d: Sum(rhs),rhsMax =  -6.44102402931929E+01  2.03447689604090E+00
(PID.TID 0000.0001)  ploadbar=  1.01008157673616E+05
 cg2d: Sum(rhs),rhsMax =  -6.43827414606096E+01  2.03525717281285E+00
(PID.TID 0000.0001)  ploadbar=  1.01006345825218E+05
 cg2d: Sum(rhs),rhsMax =  -6.43642964834934E+01  2.03577596852331E+00
(PID.TID 0000.0001)  ploadbar=  1.01004533976821E+05
 cg2d: Sum(rhs),rhsMax =  -6.43593009232648E+01  2.03589845712216E+00
(PID.TID 0000.0001)  ploadbar=  1.01002722128423E+05
 cg2d: Sum(rhs),rhsMax =  -6.43720578506677E+01  2.03548993324580E+00
(PID.TID 0000.0001)  ploadbar=  1.01000910280026E+05
 cg2d: Sum(rhs),rhsMax =  -6.44102299533770E+01  2.03431003934753E+00
(PID.TID 0000.0001)  ploadbar=  1.00999098431628E+05
 cg2d: Sum(rhs),rhsMax =  -6.44828793674114E+01  2.03206437432528E+00
(PID.TID 0000.0001)  ploadbar=  1.00997286583231E+05
 cg2d: Sum(rhs),rhsMax =  -6.45912369720419E+01  2.02867898156883E+00
(PID.TID 0000.0001)  ploadbar=  1.00996983162330E+05
 cg2d: Sum(rhs),rhsMax =  -6.47385200280856E+01  2.02403815642092E+00
(PID.TID 0000.0001)  ploadbar=  1.00996679741428E+05
 cg2d: Sum(rhs),rhsMax =  -6.49276211898755E+01  2.01806250529952E+00
(PID.TID 0000.0001)  ploadbar=  1.00996376320527E+05
 cg2d: Sum(rhs),rhsMax =  -6.51605780546857E+01  2.01070835529686E+00
(PID.TID 0000.0001)  ploadbar=  1.00996072899626E+05
 cg2d: Sum(rhs),rhsMax =  -6.54329535421480E+01  2.00214180645282E+00
(PID.TID 0000.0001)  ploadbar=  1.00995769478724E+05
 cg2d: Sum(rhs),rhsMax =  -6.57440025602121E+01  1.99241833256324E+00
(PID.TID 0000.0001)  ploadbar=  1.00995466057823E+05
 cg2d: Sum(rhs),rhsMax =  -6.61024362287007E+01  1.98143195372614E+00
(PID.TID 0000.0001)  ploadbar=  1.00995247959631E+05
 cg2d: Sum(rhs),rhsMax =  -6.65059635461336E+01  1.96928832784161E+00
(PID.TID 0000.0001)  ploadbar=  1.00995029861438E+05
 cg2d: Sum(rhs),rhsMax =  -6.69533604962945E+01  1.95606561242852E+00
(PID.TID 0000.0001)  ploadbar=  1.00994811763245E+05
 cg2d: Sum(rhs),rhsMax =  -6.74406337490559E+01  1.94192136061244E+00
(PID.TID 0000.0001)  ploadbar=  1.00994593665053E+05
 cg2d: Sum(rhs),rhsMax =  -6.79640875644984E+01  1.92699948202264E+00
(PID.TID 0000.0001)  ploadbar=  1.00994375566860E+05
 cg2d: Sum(rhs),rhsMax =  -6.85200277760283E+01  1.91143670603261E+00
(PID.TID 0000.0001)  ploadbar=  1.00994157468667E+05
 cg2d: Sum(rhs),rhsMax =  -6.91139904345228E+01  1.89508906766897E+00
(PID.TID 0000.0001)  ploadbar=  1.00993954577115E+05
 cg2d: Sum(rhs),rhsMax =  -6.97288672315126E+01  1.87845266288682E+00
(PID.TID 0000.0001)  ploadbar=  1.00993751685563E+05
 cg2d: Sum(rhs),rhsMax =  -7.03582196424838E+01  1.86171439107111E+00
(PID.TID 0000.0001)  ploadbar=  1.00993548794011E+05
 cg2d: Sum(rhs),rhsMax =  -7.09992229285574E+01  1.84495566198183E+00
(PID.TID 0000.0001)  ploadbar=  1.00993345902459E+05
 cg2d: Sum(rhs),rhsMax =  -7.16474456649740E+01  1.82829550106215E+00
(PID.TID 0000.0001)  ploadbar=  1.00993143010907E+05
 cg2d: Sum(rhs),rhsMax =  -7.22975017241406E+01  1.81186842307888E+00
(PID.TID 0000.0001)  ploadbar=  1.00992940119354E+05
 cg2d: Sum(rhs),rhsMax =  -7.29477101231013E+01  1.79572143445618E+00
(PID.TID 0000.0001)  ploadbar=  1.00992334851651E+05
 cg2d: Sum(rhs),rhsMax =  -7.35904004747167E+01  1.78003165817264E+00
(PID.TID 0000.0001)  ploadbar=  1.00991729583948E+05
 cg2d: Sum(rhs),rhsMax =  -7.42238627766112E+01  1.76482573784807E+00
(PID.TID 0000.0001)  ploadbar=  1.00991124316245E+05
 cg2d: Sum(rhs),rhsMax =  -7.48478866453016E+01  1.75009040997993E+00
(PID.TID 0000.0001)  ploadbar=  1.00990519048542E+05
 cg2d: Sum(rhs),rhsMax =  -7.54587955518231E+01  1.73589218161911E+00
(PID.TID 0000.0001)  ploadbar=  1.00989913780839E+05
 cg2d: Sum(rhs),rhsMax =  -7.60344237958060E+01  1.72270529330822E+00
(PID.TID 0000.0001)  ploadbar=  1.00989308513135E+05
 cg2d: Sum(rhs),rhsMax =  -7.65284009304133E+01  1.71153950538392E+00
(PID.TID 0000.0001)  ploadbar=  1.00989272018610E+05
 cg2d: Sum(rhs),rhsMax =  -7.70135722575303E+01  1.70069560229471E+00
(PID.TID 0000.0001)  ploadbar=  1.00989235524085E+05
 cg2d: Sum(rhs),rhsMax =  -7.75086605797078E+01  1.68975075933018E+00
(PID.TID 0000.0001)  ploadbar=  1.00989199029560E+05
 cg2d: Sum(rhs),rhsMax =  -7.80416223434974E+01  1.67810720203003E+00
(PID.TID 0000.0001)  ploadbar=  1.00989162535035E+05
 cg2d: Sum(rhs),rhsMax =  -7.86276907046565E+01  1.66547255440936E+00
(PID.TID 0000.0001)  ploadbar=  1.00989126040509E+05
 cg2d: Sum(rhs),rhsMax =  -7.90485093579383E+01  1.65645715177685E+00
(PID.TID 0000.0001)  ploadbar=  1.00989089545984E+05
 cg2d: Sum(rhs),rhsMax =  -7.93957663678547E+01  1.64912497232663E+00
(PID.TID 0000.0001)  ploadbar=  1.00988224813453E+05
 cg2d: Sum(rhs),rhsMax =  -7.96870790465032E+01  1.64306303201670E+00
(PID.TID 0000.0001)  ploadbar=  1.00987360080922E+05
 cg2d: Sum(rhs),rhsMax =  -7.99134426513673E+01  1.63842762648421E+00
(PID.TID 0000.0001)  ploadbar=  1.00986495348390E+05
 cg2d: Sum(rhs),rhsMax =  -8.00666093447667E+01  1.63535787796354E+00
(PID.TID 0000.0001)  ploadbar=  1.00985630615859E+05
 cg2d: Sum(rhs),rhsMax =  -8.01679249992886E+01  1.63339728107818E+00
(PID.TID 0000.0001)  ploadbar=  1.00984765883328E+05
 cg2d: Sum(rhs),rhsMax =  -8.02514482806849E+01  1.63183945440871E+00
(PID.TID 0000.0001)  ploadbar=  1.00983901150797E+05
 cg2d: Sum(rhs),rhsMax =  -8.03663102345836E+01  1.62964049300043E+00
(PID.TID 0000.0001)  ploadbar=  1.00983872117493E+05
 cg2d: Sum(rhs),rhsMax =  -8.05034208347227E+01  1.62697916932092E+00
(PID.TID 0000.0001)  ploadbar=  1.00983843084190E+05
 cg2d: Sum(rhs),rhsMax =  -8.06515552918036E+01  1.62408170806378E+00
(PID.TID 0000.0001)  ploadbar=  1.00983814050886E+05
 cg2d: Sum(rhs),rhsMax =  -8.07967420458804E+01  1.62122405565786E+00
(PID.TID 0000.0001)  ploadbar=  1.00983785017583E+05
 cg2d: Sum(rhs),rhsMax =  -8.09278466580350E+01  1.61862542692996E+00
(PID.TID 0000.0001)  ploadbar=  1.00983755984280E+05
 cg2d: Sum(rhs),rhsMax =  -8.10473838346818E+01  1.61623159232131E+00
(PID.TID 0000.0001)  ploadbar=  1.00983726950976E+05
 cg2d: Sum(rhs),rhsMax =  -8.11473433406530E+01  1.61422095085364E+00
(PID.TID 0000.0001)  ploadbar=  1.00984890889295E+05
 cg2d: Sum(rhs),rhsMax =  -8.12502693321254E+01  1.61214091873186E+00
(PID.TID 0000.0001)  ploadbar=  1.00986054827615E+05
 cg2d: Sum(rhs),rhsMax =  -8.13651241407934E+01  1.60981363641062E+00
(PID.TID 0000.0001)  ploadbar=  1.00987218765934E+05
 cg2d: Sum(rhs),rhsMax =  -8.14986045968527E+01  1.60711093708076E+00
(PID.TID 0000.0001)  ploadbar=  1.00988382704253E+05
 cg2d: Sum(rhs),rhsMax =  -8.16502145501116E+01  1.60404547075364E+00
(PID.TID 0000.0001)  ploadbar=  1.00989546642572E+05
 cg2d: Sum(rhs),rhsMax =  -8.18197219904949E+01  1.60061802796802E+00
(PID.TID 0000.0001)  ploadbar=  1.00990710580891E+05
 cg2d: Sum(rhs),rhsMax =  -8.19914976149225E+01  1.59712779294126E+00
(PID.TID 0000.0001)  ploadbar=  1.00991289663177E+05
 cg2d: Sum(rhs),rhsMax =  -8.21793327813227E+01  1.59329741997933E+00
(PID.TID 0000.0001)  ploadbar=  1.00991868745463E+05
 cg2d: Sum(rhs),rhsMax =  -8.23829530778965E+01  1.58913323846904E+00
(PID.TID 0000.0001)  ploadbar=  1.00992447827748E+05
 cg2d: Sum(rhs),rhsMax =  -8.26008696132793E+01  1.58466689731168E+00
(PID.TID 0000.0001)  ploadbar=  1.00993026910034E+05
 cg2d: Sum(rhs),rhsMax =  -8.28331913989325E+01  1.57990084244580E+00
(PID.TID 0000.0001)  ploadbar=  1.00993605992320E+05
 cg2d: Sum(rhs),rhsMax =  -8.30804307070999E+01  1.57482904532092E+00
(PID.TID 0000.0001)  ploadbar=  1.00994185074606E+05
 cg2d: Sum(rhs),rhsMax =  -8.28550166828773E+01  1.57879842404198E+00
(PID.TID 0000.0001)  ploadbar=  1.00993922201213E+05
 cg2d: Sum(rhs),rhsMax =  -8.21986413648389E+01  1.59113387326754E+00
(PID.TID 0000.0001)  ploadbar=  1.00993659327820E+05
 cg2d: Sum(rhs),rhsMax =  -8.15772065344083E+01  1.60302189326067E+00
(PID.TID 0000.0001)  ploadbar=  1.00993396454427E+05
 cg2d: Sum(rhs),rhsMax =  -8.10208080324616E+01  1.61383337448506E+00
(PID.TID 0000.0001)  ploadbar=  1.00993133581035E+05
 cg2d: Sum(rhs),rhsMax =  -8.05000253904279E+01  1.62411092232543E+00
(PID.TID 0000.0001)  ploadbar=  1.00992870707642E+05
 cg2d: Sum(rhs),rhsMax =  -8.00301085335996E+01  1.63351556623001E+00
(PID.TID 0000.0001)  ploadbar=  1.00992607834249E+05
 cg2d: Sum(rhs),rhsMax =  -7.95949361396876E+01  1.64233257546215E+00
(PID.TID 0000.0001)  ploadbar=  1.00992211597366E+05
 cg2d: Sum(rhs),rhsMax =  -7.98805672975424E+01  1.63635507381356E+00
(PID.TID 0000.0001)  ploadbar=  1.00991815360483E+05
 cg2d: Sum(rhs),rhsMax =  -8.05577222280134E+01  1.62249849804124E+00
(PID.TID 0000.0001)  ploadbar=  1.00991419123601E+05
 cg2d: Sum(rhs),rhsMax =  -8.11833383005847E+01  1.60988888692554E+00
(PID.TID 0000.0001)  ploadbar=  1.00991022886718E+05
 cg2d: Sum(rhs),rhsMax =  -8.17563345546199E+01  1.59849320279572E+00
(PID.TID 0000.0001)  ploadbar=  1.00990626649835E+05
 cg2d: Sum(rhs),rhsMax =  -8.22776869654561E+01  1.58824207229488E+00
(PID.TID 0000.0001)  ploadbar=  1.00990230412953E+05
 cg2d: Sum(rhs),rhsMax =  -8.28165605274514E+01  1.57778638803335E+00
(PID.TID 0000.0001)  ploadbar=  1.00990177984827E+05
 cg2d: Sum(rhs),rhsMax =  -8.25990823144562E+01  1.58181641941594E+00
(PID.TID 0000.0001)  ploadbar=  1.00990125556702E+05
 cg2d: Sum(rhs),rhsMax =  -8.22297569585643E+01  1.58879302959111E+00
(PID.TID 0000.0001)  ploadbar=  1.00990073128576E+05
 cg2d: Sum(rhs),rhsMax =  -8.18711687399567E+01  1.59562129242771E+00
(PID.TID 0000.0001)  ploadbar=  1.00990020700451E+05
 cg2d: Sum(rhs),rhsMax =  -8.14325480484340E+01  1.60408338389939E+00
(PID.TID 0000.0001)  ploadbar=  1.00989968272325E+05
 cg2d: Sum(rhs),rhsMax =  -8.09327053740874E+01  1.61384327817811E+00
(PID.TID 0000.0001)  ploadbar=  1.00989915844200E+05
 cg2d: Sum(rhs),rhsMax =  -8.03352578924382E+01  1.62567592636260E+00
(PID.TID 0000.0001)  ploadbar=  1.00989871770013E+05
 cg2d: Sum(rhs),rhsMax =  -7.96681782026304E+01  1.63908172686380E+00
(PID.TID 0000.0001)  ploadbar=  1.00989827695827E+05
 cg2d: Sum(rhs),rhsMax =  -7.89814005155360E+01  1.65308439323490E+00
(PID.TID 0000.0001)  ploadbar=  1.00989783621641E+05
 cg2d: Sum(rhs),rhsMax =  -7.82989307159577E+01  1.66719635265464E+00
(PID.TID 0000.0001)  ploadbar=  1.00989739547455E+05
 cg2d: Sum(rhs),rhsMax =  -7.76295367589438E+01  1.68122802720255E+00
(PID.TID 0000.0001)  ploadbar=  1.00989695473269E+05
 cg2d: Sum(rhs),rhsMax =  -7.69731947679355E+01  1.69516931507977E+00
(PID.TID 0000.0001)  ploadbar=  1.00989651399083E+05
 cg2d: Sum(rhs),rhsMax =  -7.62946601498598E+01  1.70991563191238E+00
(PID.TID 0000.0001)  ploadbar=  1.00990343950964E+05
 cg2d: Sum(rhs),rhsMax =  -7.55941989966226E+01  1.72548612024945E+00
(PID.TID 0000.0001)  ploadbar=  1.00991036502846E+05
 cg2d: Sum(rhs),rhsMax =  -7.49295689949060E+01  1.74056537003543E+00
(PID.TID 0000.0001)  ploadbar=  1.00991729054727E+05
 cg2d: Sum(rhs),rhsMax =  -7.43473334001677E+01  1.75401860558790E+00
(PID.TID 0000.0001)  ploadbar=  1.00992421606608E+05
 cg2d: Sum(rhs),rhsMax =  -7.38134260846722E+01  1.76657436379775E+00
(PID.TID 0000.0001)  ploadbar=  1.00993114158490E+05
 cg2d: Sum(rhs),rhsMax =  -7.33258001020579E+01  1.77823520130391E+00
(PID.TID 0000.0001)  ploadbar=  1.00993806710372E+05
 cg2d: Sum(rhs),rhsMax =  -7.28570851713739E+01  1.78958911185343E+00
(PID.TID 0000.0001)  ploadbar=  1.00993974132819E+05
 cg2d: Sum(rhs),rhsMax =  -7.24119503781091E+01  1.80049492648152E+00
(PID.TID 0000.0001)  ploadbar=  1.00994141555266E+05
 cg2d: Sum(rhs),rhsMax =  -7.19861178257601E+01  1.81103276054730E+00
(PID.TID 0000.0001)  ploadbar=  1.00994308977713E+05
 cg2d: Sum(rhs),rhsMax =  -7.15889323919960E+01  1.82094484260452E+00
(PID.TID 0000.0001)  ploadbar=  1.00994476400160E+05
 cg2d: Sum(rhs),rhsMax =  -7.12280928576109E+01  1.83000919258870E+00
(PID.TID 0000.0001)  ploadbar=  1.00994643822607E+05
 cg2d: Sum(rhs),rhsMax =  -7.09051935158719E+01  1.83815365033873E+00
(PID.TID 0000.0001)  ploadbar=  1.00994811245054E+05
 cg2d: Sum(rhs),rhsMax =  -7.06741534499676E+01  1.84398948002091E+00
(PID.TID 0000.0001)  ploadbar=  1.00994396571588E+05
 cg2d: Sum(rhs),rhsMax =  -7.04709146724952E+01  1.84914448728573E+00
(PID.TID 0000.0001)  ploadbar=  1.00993981898121E+05
 cg2d: Sum(rhs),rhsMax =  -7.02716865670875E+01  1.85423727223036E+00
(PID.TID 0000.0001)  ploadbar=  1.00993567224655E+05
 cg2d: Sum(rhs),rhsMax =  -7.00728180053817E+01  1.85936592477643E+00
(PID.TID 0000.0001)  ploadbar=  1.00993152551188E+05
 cg2d: Sum(rhs),rhsMax =  -6.98808770079828E+01  1.86435312518499E+00
(PID.TID 0000.0001)  ploadbar=  1.00992737877722E+05
 cg2d: Sum(rhs),rhsMax =  -6.96992069144814E+01  1.86909409082376E+00
(PID.TID 0000.0001)  ploadbar=  1.00992323204255E+05
 cg2d: Sum(rhs),rhsMax =  -6.95638304146277E+01  1.87258054481148E+00
(PID.TID 0000.0001)  ploadbar=  1.00992226021891E+05
 cg2d: Sum(rhs),rhsMax =  -6.94250339303204E+01  1.87612908117814E+00
(PID.TID 0000.0001)  ploadbar=  1.00992128839527E+05
 cg2d: Sum(rhs),rhsMax =  -6.92787813951391E+01  1.87984333255270E+00
(PID.TID 0000.0001)  ploadbar=  1.00992031657162E+05
 cg2d: Sum(rhs),rhsMax =  -6.91244159868273E+01  1.88374047407287E+00
(PID.TID 0000.0001)  ploadbar=  1.00991934474798E+05
 cg2d: Sum(rhs),rhsMax =  -6.89584657563877E+01  1.88791933783768E+00
(PID.TID 0000.0001)  ploadbar=  1.00991837292434E+05
 cg2d: Sum(rhs),rhsMax =  -6.87748889668206E+01  1.89255007370255E+00
(PID.TID 0000.0001)  ploadbar=  1.00991740110070E+05
 cg2d: Sum(rhs),rhsMax =  -6.84502187746501E+01  1.90117432564858E+00
(PID.TID 0000.0001)  ploadbar=  1.00992007063185E+05
 cg2d: Sum(rhs),rhsMax =  -6.80723357484107E+01  1.91142378404333E+00
(PID.TID 0000.0001)  ploadbar=  1.00992274016301E+05
 cg2d: Sum(rhs),rhsMax =  -6.76545974009996E+01  1.92295823702911E+00
(PID.TID 0000.0001)  ploadbar=  1.00992540969416E+05
 cg2d: Sum(rhs),rhsMax =  -6.71915101013555E+01  1.93597872997918E+00
(PID.TID 0000.0001)  ploadbar=  1.00992807922532E+05
 cg2d: Sum(rhs),rhsMax =  -6.66936649268268E+01  1.95022844321500E+00
(PID.TID 0000.0001)  ploadbar=  1.00993074875647E+05
 cg2d: Sum(rhs),rhsMax =  -6.61683991673584E+01  1.96553195076568E+00
(PID.TID 0000.0001)  ploadbar=  1.00993341828763E+05
 cg2d: Sum(rhs),rhsMax =  -6.56543962093654E+01  1.98078481312642E+00
(PID.TID 0000.0001)  ploadbar=  1.00994162665769E+05
 cg2d: Sum(rhs),rhsMax =  -6.51584269988242E+01  1.99576105852607E+00
(PID.TID 0000.0001)  ploadbar=  1.00994983502774E+05
 cg2d: Sum(rhs),rhsMax =  -6.46750297439108E+01  2.01060666489832E+00
(PID.TID 0000.0001)  ploadbar=  1.00995804339779E+05
 cg2d: Sum(rhs),rhsMax =  -6.41959858254005E+01  2.02556268317433E+00
(PID.TID 0000.0001)  ploadbar=  1.00996625176785E+05
 cg2d: Sum(rhs),rhsMax =  -6.37190167944634E+01  2.04069918196160E+00
(PID.TID 0000.0001)  ploadbar=  1.00997446013790E+05
 cg2d: Sum(rhs),rhsMax =  -6.32453738602760E+01  2.05597601362555E+00
(PID.TID 0000.0001)  ploadbar=  1.00998266850796E+05
 cg2d: Sum(rhs),rhsMax =  -6.28498311314127E+01  2.06891714764990E+00
(PID.TID 0000.0001)  ploadbar=  1.00998052347642E+05
 cg2d: Sum(rhs),rhsMax =  -6.24772649218956E+01  2.08125813687467E+00
(PID.TID 0000.0001)  ploadbar=  1.00997837844489E+05
 cg2d: Sum(rhs),rhsMax =  -6.21184502441302E+01  2.09328577161309E+00
(PID.TID 0000.0001)  ploadbar=  1.00997623341335E+05
 cg2d: Sum(rhs),rhsMax =  -6.17815571958997E+01  2.10471000001335E+00
(PID.TID 0000.0001)  ploadbar=  1.00997408838181E+05
 cg2d: Sum(rhs),rhsMax =  -6.14602427288721E+01  2.11572627966247E+00
(PID.TID 0000.0001)  ploadbar=  1.00997194335028E+05
 cg2d: Sum(rhs),rhsMax =  -6.11464867546240E+01  2.12658683645773E+00
(PID.TID 0000.0001)  ploadbar=  1.00996979831874E+05
 cg2d: Sum(rhs),rhsMax =  -6.08599104697189E+01  2.13653422707072E+00
(PID.TID 0000.0001)  ploadbar=  1.00996810787745E+05
 cg2d: Sum(rhs),rhsMax =  -6.05888642661884E+01  2.14594141341984E+00
(PID.TID 0000.0001)  ploadbar=  1.00996641743615E+05
 cg2d: Sum(rhs),rhsMax =  -6.03255481977738E+01  2.15506511874712E+00
(PID.TID 0000.0001)  ploadbar=  1.00996472699486E+05
 cg2d: Sum(rhs),rhsMax =  -6.00718019415981E+01  2.16383232128800E+00
(PID.TID 0000.0001)  ploadbar=  1.00996303655356E+05
 cg2d: Sum(rhs),rhsMax =  -5.98434858006367E+01  2.17165920141473E+00
(PID.TID 0000.0001)  ploadbar=  1.00996134611227E+05
 cg2d: Sum(rhs),rhsMax =  -5.96491646982598E+01  2.17821341671871E+00
(PID.TID 0000.0001)  ploadbar=  1.00995965567097E+05
 cg2d: Sum(rhs),rhsMax =  -5.94806380652229E+01  2.18395260692941E+00
(PID.TID 0000.0001)  ploadbar=  1.00995438180366E+05
 cg2d: Sum(rhs),rhsMax =  -5.93460713661996E+01  2.18855212697498E+00
(PID.TID 0000.0001)  ploadbar=  1.00994910793635E+05
 cg2d: Sum(rhs),rhsMax =  -5.92411657260921E+01  2.19214263111302E+00
(PID.TID 0000.0001)  ploadbar=  1.00994383406904E+05
 cg2d: Sum(rhs),rhsMax =  -5.91591370586100E+01  2.19495959106038E+00
(PID.TID 0000.0001)  ploadbar=  1.00993856020173E+05
 cg2d: Sum(rhs),rhsMax =  -5.90978303998053E+01  2.19706564220441E+00
(PID.TID 0000.0001)  ploadbar=  1.00993328633442E+05
 cg2d: Sum(rhs),rhsMax =  -5.90460305083675E+01  2.19886582498327E+00
(PID.TID 0000.0001)  ploadbar=  1.00992801246711E+05
 cg2d: Sum(rhs),rhsMax =  -5.90128165590163E+01  2.19995206842993E+00
(PID.TID 0000.0001)  ploadbar=  1.00992693510521E+05
 cg2d: Sum(rhs),rhsMax =  -5.90356554005578E+01  2.19891693701802E+00
(PID.TID 0000.0001)  ploadbar=  1.00992585774331E+05
 cg2d: Sum(rhs),rhsMax =  -5.91458375844806E+01  2.19459672738697E+00
(PID.TID 0000.0001)  ploadbar=  1.00992478038141E+05
 cg2d: Sum(rhs),rhsMax =  -5.93475565645716E+01  2.18686754511200E+00
(PID.TID 0000.0001)  ploadbar=  1.00992370301951E+05
 cg2d: Sum(rhs),rhsMax =  -5.96531654394587E+01  2.17534482778117E+00
(PID.TID 0000.0001)  ploadbar=  1.00992262565761E+05
 cg2d: Sum(rhs),rhsMax =  -5.99930549594799E+01  2.16264796680339E+00
(PID.TID 0000.0001)  ploadbar=  1.00992154829572E+05
 cg2d: Sum(rhs),rhsMax =  -6.02845829605475E+01  2.15183229737538E+00
(PID.TID 0000.0001)  ploadbar=  1.00992800108265E+05
 cg2d: Sum(rhs),rhsMax =  -6.05446436270013E+01  2.14223642688328E+00
(PID.TID 0000.0001)  ploadbar=  1.00993445386958E+05
 cg2d: Sum(rhs),rhsMax =  -6.08042035065370E+01  2.13274265774041E+00
(PID.TID 0000.0001)  ploadbar=  1.00994090665652E+05
 cg2d: Sum(rhs),rhsMax =  -6.10770761272386E+01  2.12287190698395E+00
(PID.TID 0000.0001)  ploadbar=  1.00994735944345E+05
 cg2d: Sum(rhs),rhsMax =  -6.13608334828367E+01  2.11271898433410E+00
(PID.TID 0000.0001)  ploadbar=  1.00995381223038E+05
 cg2d: Sum(rhs),rhsMax =  -6.16506939473668E+01  2.10244513291497E+00
(PID.TID 0000.0001)  ploadbar=  1.00996026501732E+05
 cg2d: Sum(rhs),rhsMax =  -6.18919193693306E+01  2.09388202094337E+00
(PID.TID 0000.0001)  ploadbar=  1.00996948799873E+05
 cg2d: Sum(rhs),rhsMax =  -6.21052538676295E+01  2.08627943325923E+00
(PID.TID 0000.0001)  ploadbar=  1.00997871098013E+05
 cg2d: Sum(rhs),rhsMax =  -6.22826560502155E+01  2.07987590415199E+00
(PID.TID 0000.0001)  ploadbar=  1.00998793396154E+05
 cg2d: Sum(rhs),rhsMax =  -6.24136288944779E+01  2.07499692733558E+00
(PID.TID 0000.0001)  ploadbar=  1.00999715694295E+05
 cg2d: Sum(rhs),rhsMax =  -6.24929514534146E+01  2.07179370135233E+00
(PID.TID 0000.0001)  ploadbar=  1.01000637992436E+05
 cg2d: Sum(rhs),rhsMax =  -6.25218066941305E+01  2.07021020747200E+00
(PID.TID 0000.0001)  ploadbar=  1.01001560290577E+05
 cg2d: Sum(rhs),rhsMax =  -6.24940050722274E+01  2.07058503127640E+00
(PID.TID 0000.0001)  ploadbar=  1.01001300761395E+05
 cg2d: Sum(rhs),rhsMax =  -6.24601695839250E+01  2.07123332510517E+00
(PID.TID 0000.0001)  ploadbar=  1.01001041232213E+05
 cg2d: Sum(rhs),rhsMax =  -6.24288693312023E+01  2.07185948517306E+00
(PID.TID 0000.0001)  ploadbar=  1.01000781703032E+05
 cg2d: Sum(rhs),rhsMax =  -6.24053722281874E+01  2.07228376295533E+00
(PID.TID 0000.0001)  ploadbar=  1.01000522173850E+05
 cg2d: Sum(rhs),rhsMax =  -6.23744132485353E+01  2.07300826804256E+00
(PID.TID 0000.0001)  ploadbar=  1.01000262644668E+05
 cg2d: Sum(rhs),rhsMax =  -6.23544564308872E+01  2.07341221785668E+00
(PID.TID 0000.0001)  ploadbar=  1.01000003115486E+05
 cg2d: Sum(rhs),rhsMax =  -6.24196534428506E+01  2.07098156012705E+00
(PID.TID 0000.0001)  ploadbar=  1.00999864777989E+05
 cg2d: Sum(rhs),rhsMax =  -6.24563904292850E+01  2.06948108745834E+00
(PID.TID 0000.0001)  ploadbar=  1.00999726440492E+05
 cg2d: Sum(rhs),rhsMax =  -6.24537561310228E+01  2.06926337415850E+00
(PID.TID 0000.0001)  ploadbar=  1.00999588102995E+05
 cg2d: Sum(rhs),rhsMax =  -6.24052104058052E+01  2.07054268376860E+00
(PID.TID 0000.0001)  ploadbar=  1.00999449765498E+05
 cg2d: Sum(rhs),rhsMax =  -6.23167551173781E+01  2.07312062806595E+00
(PID.TID 0000.0001)  ploadbar=  1.00999311428001E+05
 cg2d: Sum(rhs),rhsMax =  -6.22008152488610E+01  2.07659295250496E+00
(PID.TID 0000.0001)  ploadbar=  1.00999173090504E+05
 cg2d: Sum(rhs),rhsMax =  -6.20608688390792E+01  2.08090549642106E+00
(PID.TID 0000.0001)  ploadbar=  1.00998553357735E+05
 cg2d: Sum(rhs),rhsMax =  -6.19230841335553E+01  2.08518059930260E+00
(PID.TID 0000.0001)  ploadbar=  1.00997933624966E+05
 cg2d: Sum(rhs),rhsMax =  -6.17952804910961E+01  2.08915410731487E+00
(PID.TID 0000.0001)  ploadbar=  1.00997313892197E+05
 cg2d: Sum(rhs),rhsMax =  -6.16947807047015E+01  2.09223691374053E+00
(PID.TID 0000.0001)  ploadbar=  1.00996694159428E+05
 cg2d: Sum(rhs),rhsMax =  -6.16291344717073E+01  2.09416343345551E+00
(PID.TID 0000.0001)  ploadbar=  1.00996074426660E+05
 cg2d: Sum(rhs),rhsMax =  -6.15945254781318E+01  2.09504409774058E+00
(PID.TID 0000.0001)  ploadbar=  1.00995454693891E+05
 cg2d: Sum(rhs),rhsMax =  -6.15559622390209E+01  2.09599731697754E+00
(PID.TID 0000.0001)  ploadbar=  1.00994998502890E+05
 cg2d: Sum(rhs),rhsMax =  -6.14979758805270E+01  2.09754175365456E+00
(PID.TID 0000.0001)  ploadbar=  1.00994542311888E+05
 cg2d: Sum(rhs),rhsMax =  -6.14320554365881E+01  2.09927794387813E+00
(PID.TID 0000.0001)  ploadbar=  1.00994086120887E+05
 cg2d: Sum(rhs),rhsMax =  -6.13504327724946E+01  2.10147161361217E+00
(PID.TID 0000.0001)  ploadbar=  1.00993629929886E+05
 cg2d: Sum(rhs),rhsMax =  -6.12484368371554E+01  2.10428609513737E+00
(PID.TID 0000.0001)  ploadbar=  1.00993173738884E+05
 cg2d: Sum(rhs),rhsMax =  -6.11254144732142E+01  2.10774799857662E+00
(PID.TID 0000.0001)  ploadbar=  1.00992717547883E+05
 cg2d: Sum(rhs),rhsMax =  -6.09779776304560E+01  2.11212107827804E+00
(PID.TID 0000.0001)  ploadbar=  1.00992520407602E+05
 cg2d: Sum(rhs),rhsMax =  -6.08105776109913E+01  2.11725371849089E+00
(PID.TID 0000.0001)  ploadbar=  1.00992323267320E+05
 cg2d: Sum(rhs),rhsMax =  -6.06282640105033E+01  2.12296842023865E+00
(PID.TID 0000.0001)  ploadbar=  1.00992126127039E+05
 cg2d: Sum(rhs),rhsMax =  -6.04398866928437E+01  2.12895609413541E+00
(PID.TID 0000.0001)  ploadbar=  1.00991928986757E+05
 cg2d: Sum(rhs),rhsMax =  -6.02525980691720E+01  2.13496488525288E+00
(PID.TID 0000.0001)  ploadbar=  1.00991731846476E+05
 cg2d: Sum(rhs),rhsMax =  -6.00658761550411E+01  2.14101550696678E+00
(PID.TID 0000.0001)  ploadbar=  1.00991534706194E+05
 cg2d: Sum(rhs),rhsMax =  -5.98808486875712E+01  2.14704534688772E+00
(PID.TID 0000.0001)  ploadbar=  1.00990988785072E+05
 cg2d: Sum(rhs),rhsMax =  -5.97143730083161E+01  2.15243640125736E+00
(PID.TID 0000.0001)  ploadbar=  1.00990442863951E+05
 cg2d: Sum(rhs),rhsMax =  -5.95687236011888E+01  2.15709382014081E+00
(PID.TID 0000.0001)  ploadbar=  1.00989896942829E+05
 cg2d: Sum(rhs),rhsMax =  -5.94414555035350E+01  2.16109027269353E+00
(PID.TID 0000.0001)  ploadbar=  1.00989351021708E+05
 cg2d: Sum(rhs),rhsMax =  -5.94916651560513E+01  2.15862525319890E+00
(PID.TID 0000.0001)  ploadbar=  1.00988805100586E+05
 cg2d: Sum(rhs),rhsMax =  -5.98554085861227E+01  2.14484699700641E+00
(PID.TID 0000.0001)  ploadbar=  1.00988259179464E+05
 cg2d: Sum(rhs),rhsMax =  -6.01952348555936E+01  2.13212159298003E+00
(PID.TID 0000.0001)  ploadbar=  1.00989397565481E+05
 cg2d: Sum(rhs),rhsMax =  -6.05121121783659E+01  2.12037548816760E+00
(PID.TID 0000.0001)  ploadbar=  1.00990535951497E+05
 cg2d: Sum(rhs),rhsMax =  -6.08014168909469E+01  2.10974139535396E+00
(PID.TID 0000.0001)  ploadbar=  1.00991674337513E+05
 cg2d: Sum(rhs),rhsMax =  -6.10672409559443E+01  2.10004897686738E+00
(PID.TID 0000.0001)  ploadbar=  1.00992812723530E+05
 cg2d: Sum(rhs),rhsMax =  -6.13195284839146E+01  2.09093458225490E+00
(PID.TID 0000.0001)  ploadbar=  1.00993951109546E+05
 cg2d: Sum(rhs),rhsMax =  -6.15523451290826E+01  2.08257374253277E+00
(PID.TID 0000.0001)  ploadbar=  1.00995089495562E+05
 cg2d: Sum(rhs),rhsMax =  -6.17844489886801E+01  2.07422465988775E+00
(PID.TID 0000.0001)  ploadbar=  1.00995483639019E+05
 cg2d: Sum(rhs),rhsMax =  -6.20618027256252E+01  2.06434684644013E+00
(PID.TID 0000.0001)  ploadbar=  1.00995877782476E+05
 cg2d: Sum(rhs),rhsMax =  -6.23014147249024E+01  2.05570849813619E+00
(PID.TID 0000.0001)  ploadbar=  1.00996271925933E+05
 cg2d: Sum(rhs),rhsMax =  -6.25108189489566E+01  2.04802978991443E+00
(PID.TID 0000.0001)  ploadbar=  1.00996666069390E+05
 cg2d: Sum(rhs),rhsMax =  -6.26894076349370E+01  2.04130666292580E+00
(PID.TID 0000.0001)  ploadbar=  1.00997060212848E+05
 cg2d: Sum(rhs),rhsMax =  -6.28381758076645E+01  2.03548504056405E+00
(PID.TID 0000.0001)  ploadbar=  1.00997454356305E+05
 cg2d: Sum(rhs),rhsMax =  -6.30021435653952E+01  2.02928805066374E+00
(PID.TID 0000.0001)  ploadbar=  1.00997623281568E+05
 cg2d: Sum(rhs),rhsMax =  -6.32765634604431E+01  2.01967118440338E+00
(PID.TID 0000.0001)  ploadbar=  1.00997792206832E+05
 cg2d: Sum(rhs),rhsMax =  -6.36174864962328E+01  2.00810362138356E+00
(PID.TID 0000.0001)  ploadbar=  1.00997961132095E+05
 cg2d: Sum(rhs),rhsMax =  -6.39467606176757E+01  1.99708472089560E+00
(PID.TID 0000.0001)  ploadbar=  1.00998130057359E+05
 cg2d: Sum(rhs),rhsMax =  -6.42782792677762E+01  1.98616614591750E+00
(PID.TID 0000.0001)  ploadbar=  1.00998298982622E+05
 cg2d: Sum(rhs),rhsMax =  -6.46934972637666E+01  1.97286063158485E+00
(PID.TID 0000.0001)  ploadbar=  1.00998467907886E+05
 cg2d: Sum(rhs),rhsMax =  -6.51167354326663E+01  1.95948901117772E+00
(PID.TID 0000.0001)  ploadbar=  1.00998202230008E+05
 cg2d: Sum(rhs),rhsMax =  -6.55412107870576E+01  1.94625049393244E+00
(PID.TID 0000.0001)  ploadbar=  1.00997936552131E+05
 cg2d: Sum(rhs),rhsMax =  -6.59669104045951E+01  1.93313693734002E+00
(PID.TID 0000.0001)  ploadbar=  1.00997670874253E+05
 cg2d: Sum(rhs),rhsMax =  -6.63875804867728E+01  1.92032050768960E+00
(PID.TID 0000.0001)  ploadbar=  1.00997405196376E+05
 cg2d: Sum(rhs),rhsMax =  -6.68048827452824E+01  1.90773534971473E+00
(PID.TID 0000.0001)  ploadbar=  1.00997139518498E+05
 cg2d: Sum(rhs),rhsMax =  -6.72258903636620E+01  1.89517187563929E+00
(PID.TID 0000.0001)  ploadbar=  1.00996873840620E+05
 cg2d: Sum(rhs),rhsMax =  -6.76658184483331E+01  1.88227053185225E+00
(PID.TID 0000.0001)  ploadbar=  1.00997617709915E+05
 cg2d: Sum(rhs),rhsMax =  -6.80774993788126E+01  1.87033976463347E+00
(PID.TID 0000.0001)  ploadbar=  1.00998361579209E+05
 cg2d: Sum(rhs),rhsMax =  -6.84505622317847E+01  1.85963007940433E+00
(PID.TID 0000.0001)  ploadbar=  1.00999105448503E+05
 cg2d: Sum(rhs),rhsMax =  -6.87836632761419E+01  1.85014111954396E+00
(PID.TID 0000.0001)  ploadbar=  1.00999849317798E+05
 cg2d: Sum(rhs),rhsMax =  -6.90756977504689E+01  1.84186811596544E+00
(PID.TID 0000.0001)  ploadbar=  1.01000593187092E+05
 cg2d: Sum(rhs),rhsMax =  -6.93253136513170E+01  1.83481004107039E+00
(PID.TID 0000.0001)  ploadbar=  1.01001337056386E+05
 cg2d: Sum(rhs),rhsMax =  -6.95246969709931E+01  1.82909133146301E+00
(PID.TID 0000.0001)  ploadbar=  1.01002306772762E+05
 cg2d: Sum(rhs),rhsMax =  -6.98200198373279E+01  1.82085827832233E+00
(PID.TID 0000.0001)  ploadbar=  1.01003276489138E+05
 cg2d: Sum(rhs),rhsMax =  -7.01598588255812E+01  1.81149489486219E+00
(PID.TID 0000.0001)  ploadbar=  1.01004246205514E+05
 cg2d: Sum(rhs),rhsMax =  -7.05146148866512E+01  1.80178868880811E+00
(PID.TID 0000.0001)  ploadbar=  1.01005215921889E+05
 cg2d: Sum(rhs),rhsMax =  -7.08759885800289E+01  1.79195809850469E+00
(PID.TID 0000.0001)  ploadbar=  1.01006185638265E+05
 cg2d: Sum(rhs),rhsMax =  -7.12619194617693E+01  1.78155446884552E+00
(PID.TID 0000.0001)  ploadbar=  1.01007155354641E+05
 cg2d: Sum(rhs),rhsMax =  -7.16691981330519E+01  1.77082793933603E+00
(PID.TID 0000.0001)  ploadbar=  1.01006048060565E+05
 cg2d: Sum(rhs),rhsMax =  -7.20856085906141E+01  1.76008464141919E+00
(PID.TID 0000.0001)  ploadbar=  1.01004940766489E+05
 cg2d: Sum(rhs),rhsMax =  -7.24968373673209E+01  1.74966901442127E+00
(PID.TID 0000.0001)  ploadbar=  1.01003833472413E+05
 cg2d: Sum(rhs),rhsMax =  -7.28948775921646E+01  1.73976099362344E+00
(PID.TID 0000.0001)  ploadbar=  1.01002726178337E+05
 cg2d: Sum(rhs),rhsMax =  -7.33871368889985E+01  1.72781132650411E+00
(PID.TID 0000.0001)  ploadbar=  1.01001618884261E+05
 cg2d: Sum(rhs),rhsMax =  -7.38831051586734E+01  1.71600133719625E+00
(PID.TID 0000.0001)  ploadbar=  1.01000511590185E+05
 cg2d: Sum(rhs),rhsMax =  -7.43341412404721E+01  1.70536967448747E+00
(PID.TID 0000.0001)  ploadbar=  1.01000615806465E+05
 cg2d: Sum(rhs),rhsMax =  -7.47797166260544E+01  1.69497193780287E+00
(PID.TID 0000.0001)  ploadbar=  1.01000720022745E+05
 cg2d: Sum(rhs),rhsMax =  -7.52381997403325E+01  1.68438669436139E+00
(PID.TID 0000.0001)  ploadbar=  1.01000824239024E+05
 cg2d: Sum(rhs),rhsMax =  -7.57215542190388E+01  1.67335243776809E+00
(PID.TID 0000.0001)  ploadbar=  1.01000928455304E+05
 cg2d: Sum(rhs),rhsMax =  -7.62367221918534E+01  1.66172647381284E+00
(PID.TID 0000.0001)  ploadbar=  1.01001032671583E+05
 cg2d: Sum(rhs),rhsMax =  -7.67932028347993E+01  1.64932797519448E+00
(PID.TID 0000.0001)  ploadbar=  1.01001136887863E+05
 cg2d: Sum(rhs),rhsMax =  -7.70754301773187E+01  1.64296036290446E+00
(PID.TID 0000.0001)  ploadbar=  1.01001375041207E+05
 cg2d: Sum(rhs),rhsMax =  -7.70282835852074E+01  1.64366106762428E+00
(PID.TID 0000.0001)  ploadbar=  1.01001613194550E+05
 cg2d: Sum(rhs),rhsMax =  -7.71166381257950E+01  1.64149709011649E+00
(PID.TID 0000.0001)  ploadbar=  1.01001851347894E+05
 cg2d: Sum(rhs),rhsMax =  -7.73353269850198E+01  1.63659801567145E+00
(PID.TID 0000.0001)  ploadbar=  1.01002089501238E+05
 cg2d: Sum(rhs),rhsMax =  -7.76072351817104E+01  1.63062392127696E+00
(PID.TID 0000.0001)  ploadbar=  1.01002327654582E+05
 cg2d: Sum(rhs),rhsMax =  -7.79301627393318E+01  1.62363909083858E+00
(PID.TID 0000.0001)  ploadbar=  1.01002565807926E+05
 cg2d: Sum(rhs),rhsMax =  -7.80297725190015E+01  1.62129015695930E+00
(PID.TID 0000.0001)  ploadbar=  1.01003292780368E+05
 cg2d: Sum(rhs),rhsMax =  -7.78169775930926E+01  1.62539020298448E+00
(PID.TID 0000.0001)  ploadbar=  1.01004019752810E+05
 cg2d: Sum(rhs),rhsMax =  -7.76920002139888E+01  1.62761022236660E+00
(PID.TID 0000.0001)  ploadbar=  1.01004746725252E+05
 cg2d: Sum(rhs),rhsMax =  -7.76114073010556E+01  1.62884167849552E+00
(PID.TID 0000.0001)  ploadbar=  1.01005473697694E+05
 cg2d: Sum(rhs),rhsMax =  -7.75862164093407E+01  1.62884531513934E+00
(PID.TID 0000.0001)  ploadbar=  1.01006200670137E+05
 cg2d: Sum(rhs),rhsMax =  -7.76019306836274E+01  1.62792182130320E+00
(PID.TID 0000.0001)  ploadbar=  1.01006927642579E+05
 cg2d: Sum(rhs),rhsMax =  -7.75627942010743E+01  1.62820645998310E+00
(PID.TID 0000.0001)  ploadbar=  1.01007714721787E+05
 cg2d: Sum(rhs),rhsMax =  -7.75056633297552E+01  1.62891887543068E+00
(PID.TID 0000.0001)  ploadbar=  1.01008501800994E+05
 cg2d: Sum(rhs),rhsMax =  -7.74713158286240E+01  1.62919790390587E+00
(PID.TID 0000.0001)  ploadbar=  1.01009288880202E+05
 cg2d: Sum(rhs),rhsMax =  -7.74524145490955E+01  1.62918800968339E+00
(PID.TID 0000.0001)  ploadbar=  1.01010075959410E+05
 cg2d: Sum(rhs),rhsMax =  -7.74346244937925E+01  1.62918663416390E+00
(PID.TID 0000.0001)  ploadbar=  1.01010863038618E+05
 cg2d: Sum(rhs),rhsMax =  -7.74592043533243E+01  1.62832253889348E+00
(PID.TID 0000.0001)  ploadbar=  1.01011650117826E+05
 cg2d: Sum(rhs),rhsMax =  -7.75131839152875E+01  1.62684189063616E+00
(PID.TID 0000.0001)  ploadbar=  1.01013272452170E+05
 cg2d: Sum(rhs),rhsMax =  -7.75944865327083E+01  1.62478375255889E+00
(PID.TID 0000.0001)  ploadbar=  1.01014894786513E+05
 cg2d: Sum(rhs),rhsMax =  -7.77137334398651E+01  1.62192650560884E+00
(PID.TID 0000.0001)  ploadbar=  1.01016517120857E+05
 cg2d: Sum(rhs),rhsMax =  -7.78095607498608E+01  1.61955013150204E+00
(PID.TID 0000.0001)  ploadbar=  1.01018139455201E+05
 cg2d: Sum(rhs),rhsMax =  -7.78729664016229E+01  1.61783204461477E+00
(PID.TID 0000.0001)  ploadbar=  1.01019761789545E+05
 cg2d: Sum(rhs),rhsMax =  -7.79370144630675E+01  1.61607748459820E+00
(PID.TID 0000.0001)  ploadbar=  1.01021384123888E+05
 cg2d: Sum(rhs),rhsMax =  -7.80223214028225E+01  1.61391548059309E+00
(PID.TID 0000.0001)  ploadbar=  1.01022486778456E+05
 cg2d: Sum(rhs),rhsMax =  -7.80541815738418E+01  1.61288783515332E+00
(PID.TID 0000.0001)  ploadbar=  1.01023589433023E+05
 cg2d: Sum(rhs),rhsMax =  -7.80316956490115E+01  1.61300925576724E+00
(PID.TID 0000.0001)  ploadbar=  1.01024692087591E+05
 cg2d: Sum(rhs),rhsMax =  -7.79359279402332E+01  1.61467183552579E+00
(PID.TID 0000.0001)  ploadbar=  1.01025794742158E+05
 cg2d: Sum(rhs),rhsMax =  -7.77816408987807E+01  1.61757380538715E+00
(PID.TID 0000.0001)  ploadbar=  1.01026897396725E+05
 cg2d: Sum(rhs),rhsMax =  -7.75758624592629E+01  1.62157694043347E+00
(PID.TID 0000.0001)  ploadbar=  1.01028000051293E+05
 cg2d: Sum(rhs),rhsMax =  -7.72884448861583E+01  1.62730268230489E+00
(PID.TID 0000.0001)  ploadbar=  1.01028948382510E+05
 cg2d: Sum(rhs),rhsMax =  -7.70858655841500E+01  1.63125100416403E+00
(PID.TID 0000.0001)  ploadbar=  1.01029896713727E+05
 cg2d: Sum(rhs),rhsMax =  -7.69859711944133E+01  1.63301187963332E+00
(PID.TID 0000.0001)  ploadbar=  1.01030845044944E+05
 cg2d: Sum(rhs),rhsMax =  -7.69005055347556E+01  1.63444010402840E+00
(PID.TID 0000.0001)  ploadbar=  1.01031793376161E+05
 cg2d: Sum(rhs),rhsMax =  -7.68217767007445E+01  1.63569491294271E+00
(PID.TID 0000.0001)  ploadbar=  1.01032741707378E+05
 cg2d: Sum(rhs),rhsMax =  -7.67439531343938E+01  1.63689714634423E+00
(PID.TID 0000.0001)  ploadbar=  1.01033690038595E+05
 cg2d: Sum(rhs),rhsMax =  -7.66920851507301E+01  1.63759871692343E+00
(PID.TID 0000.0001)  ploadbar=  1.01034131087033E+05
 cg2d: Sum(rhs),rhsMax =  -7.66803138756654E+01  1.63749103205662E+00
(PID.TID 0000.0001)  ploadbar=  1.01034572135472E+05
 cg2d: Sum(rhs),rhsMax =  -7.67123878229096E+01  1.63648770009374E+00
(PID.TID 0000.0001)  ploadbar=  1.01035013183911E+05
 cg2d: Sum(rhs),rhsMax =  -7.68087618882174E+01  1.63414850664788E+00
(PID.TID 0000.0001)  ploadbar=  1.01035454232350E+05
 cg2d: Sum(rhs),rhsMax =  -7.69532225943688E+01  1.63082713774346E+00
(PID.TID 0000.0001)  ploadbar=  1.01035895280789E+05
 cg2d: Sum(rhs),rhsMax =  -7.71505031150608E+01  1.62643076304931E+00
(PID.TID 0000.0001)  ploadbar=  1.01036336329227E+05
 cg2d: Sum(rhs),rhsMax =  -7.73610208599005E+01  1.62178963723135E+00
(PID.TID 0000.0001)  ploadbar=  1.01035983208489E+05
 cg2d: Sum(rhs),rhsMax =  -7.75961472778596E+01  1.61666515333793E+00
(PID.TID 0000.0001)  ploadbar=  1.01035630087751E+05
 cg2d: Sum(rhs),rhsMax =  -7.78370619706333E+01  1.61145239782074E+00
(PID.TID 0000.0001)  ploadbar=  1.01035276967013E+05
 cg2d: Sum(rhs),rhsMax =  -7.80665739710245E+01  1.60650274255517E+00
(PID.TID 0000.0001)  ploadbar=  1.01034923846274E+05
 cg2d: Sum(rhs),rhsMax =  -7.82748160076121E+01  1.60200874008501E+00
(PID.TID 0000.0001)  ploadbar=  1.01034570725536E+05
 cg2d: Sum(rhs),rhsMax =  -7.84524754979647E+01  1.59815105766227E+00
(PID.TID 0000.0001)  ploadbar=  1.01034217604798E+05
 cg2d: Sum(rhs),rhsMax =  -7.85970845932305E+01  1.59498795307623E+00
(PID.TID 0000.0001)  ploadbar=  1.01034687576372E+05
 cg2d: Sum(rhs),rhsMax =  -7.86901953410857E+01  1.59287685351562E+00
(PID.TID 0000.0001)  ploadbar=  1.01035157547947E+05
 cg2d: Sum(rhs),rhsMax =  -7.87423988922586E+01  1.59159459315433E+00
(PID.TID 0000.0001)  ploadbar=  1.01035627519521E+05
 cg2d: Sum(rhs),rhsMax =  -7.87678558022846E+01  1.59084864797242E+00
(PID.TID 0000.0001)  ploadbar=  1.01036097491096E+05
 cg2d: Sum(rhs),rhsMax =  -7.87929048450906E+01  1.59010080558154E+00
(PID.TID 0000.0001)  ploadbar=  1.01036567462671E+05
 cg2d: Sum(rhs),rhsMax =  -7.88115671977917E+01  1.58946545268753E+00
(PID.TID 0000.0001)  ploadbar=  1.01037037434245E+05
 cg2d: Sum(rhs),rhsMax =  -7.88059547062318E+01  1.58928508877181E+00
(PID.TID 0000.0001)  ploadbar=  1.01037689109947E+05
 cg2d: Sum(rhs),rhsMax =  -7.89120890972917E+01  1.58681354772905E+00
(PID.TID 0000.0001)  ploadbar=  1.01038340785649E+05
 cg2d: Sum(rhs),rhsMax =  -7.91040981468562E+01  1.58258327474004E+00
(PID.TID 0000.0001)  ploadbar=  1.01038992461351E+05
 cg2d: Sum(rhs),rhsMax =  -7.93271881613794E+01  1.57770541578702E+00
(PID.TID 0000.0001)  ploadbar=  1.01039644137052E+05
 cg2d: Sum(rhs),rhsMax =  -7.95634554146009E+01  1.57254176980307E+00
(PID.TID 0000.0001)  ploadbar=  1.01040295812754E+05
 cg2d: Sum(rhs),rhsMax =  -7.97954046056087E+01  1.56743835803414E+00
(PID.TID 0000.0001)  ploadbar=  1.01040947488456E+05
 cg2d: Sum(rhs),rhsMax =  -8.00390738271696E+01  1.56218431762641E+00
(PID.TID 0000.0001)  ploadbar=  1.01041377094217E+05
 cg2d: Sum(rhs),rhsMax =  -8.03067026431853E+01  1.55653815578986E+00
(PID.TID 0000.0001)  ploadbar=  1.01041806699978E+05
 cg2d: Sum(rhs),rhsMax =  -8.05678910870223E+01  1.55108489099342E+00
(PID.TID 0000.0001)  ploadbar=  1.01042236305739E+05
 cg2d: Sum(rhs),rhsMax =  -8.08242342870442E+01  1.54578731529850E+00
(PID.TID 0000.0001)  ploadbar=  1.01042665911500E+05
 cg2d: Sum(rhs),rhsMax =  -8.10895634666894E+01  1.54037708440449E+00
(PID.TID 0000.0001)  ploadbar=  1.01043095517261E+05
 cg2d: Sum(rhs),rhsMax =  -8.13708651451846E+01  1.53471951929993E+00
(PID.TID 0000.0001)  ploadbar=  1.01043525123022E+05
 cg2d: Sum(rhs),rhsMax =  -8.16583569649183E+01  1.52900056696426E+00
(PID.TID 0000.0001)  ploadbar=  1.01045269936964E+05
 cg2d: Sum(rhs),rhsMax =  -8.19606637378155E+01  1.52305418259814E+00
(PID.TID 0000.0001)  ploadbar=  1.01047014750907E+05
 cg2d: Sum(rhs),rhsMax =  -8.22926342142697E+01  1.51660928745805E+00
(PID.TID 0000.0001)  ploadbar=  1.01048759564850E+05
 cg2d: Sum(rhs),rhsMax =  -8.26576203820431E+01  1.50961210514606E+00
(PID.TID 0000.0001)  ploadbar=  1.01050504378793E+05
 cg2d: Sum(rhs),rhsMax =  -8.30480211154427E+01  1.50220983531333E+00
(PID.TID 0000.0001)  ploadbar=  1.01052249192736E+05
 cg2d: Sum(rhs),rhsMax =  -8.26581858046123E+01  1.50897805887310E+00
(PID.TID 0000.0001)  ploadbar=  1.01053994006678E+05
 cg2d: Sum(rhs),rhsMax =  -8.22463530518515E+01  1.51624359139652E+00
(PID.TID 0000.0001)  ploadbar=  1.01054859207439E+05
 cg2d: Sum(rhs),rhsMax =  -8.18014407301702E+01  1.52421660944089E+00
(PID.TID 0000.0001)  ploadbar=  1.01055724408200E+05
 cg2d: Sum(rhs),rhsMax =  -8.13231180088226E+01  1.53292038201293E+00
(PID.TID 0000.0001)  ploadbar=  1.01056589608961E+05
 cg2d: Sum(rhs),rhsMax =  -8.08270210078655E+01  1.54207661208797E+00
(PID.TID 0000.0001)  ploadbar=  1.01057454809722E+05
 cg2d: Sum(rhs),rhsMax =  -8.03198459684337E+01  1.55156099375439E+00
(PID.TID 0000.0001)  ploadbar=  1.01058320010483E+05
 cg2d: Sum(rhs),rhsMax =  -7.98728933083298E+01  1.55998044790487E+00
(PID.TID 0000.0001)  ploadbar=  1.01059185211244E+05
 cg2d: Sum(rhs),rhsMax =  -7.94637341766776E+01  1.56771198286587E+00
(PID.TID 0000.0001)  ploadbar=  1.01059671742743E+05
 cg2d: Sum(rhs),rhsMax =  -7.91409461380705E+01  1.57376186574238E+00
(PID.TID 0000.0001)  ploadbar=  1.01060158274241E+05
 cg2d: Sum(rhs),rhsMax =  -7.89197779619899E+01  1.57777834221768E+00
(PID.TID 0000.0001)  ploadbar=  1.01060644805740E+05
 cg2d: Sum(rhs),rhsMax =  -7.87990480221503E+01  1.57974668826202E+00
(PID.TID 0000.0001)  ploadbar=  1.01061131337238E+05
 cg2d: Sum(rhs),rhsMax =  -7.91151303513457E+01  1.57292787818666E+00
(PID.TID 0000.0001)  ploadbar=  1.01061617868737E+05
 cg2d: Sum(rhs),rhsMax =  -7.96321819744072E+01  1.56214516896756E+00
(PID.TID 0000.0001)  ploadbar=  1.01062104400235E+05
 cg2d: Sum(rhs),rhsMax =  -8.00192941325298E+01  1.55408124259657E+00
(PID.TID 0000.0001)  ploadbar=  1.01062475375896E+05
 cg2d: Sum(rhs),rhsMax =  -8.08037573153638E+01  1.53854467874605E+00
(PID.TID 0000.0001)  ploadbar=  1.01062846351557E+05
 cg2d: Sum(rhs),rhsMax =  -8.18630446027112E+01  1.51823769282727E+00
(PID.TID 0000.0001)  ploadbar=  1.01063217327218E+05
 cg2d: Sum(rhs),rhsMax =  -8.31783123374090E+01  1.49387525792914E+00
(PID.TID 0000.0001)  ploadbar=  1.01063588302879E+05
 cg2d: Sum(rhs),rhsMax =  -8.47367090733550E+01  1.46608480934654E+00
(PID.TID 0000.0001)  ploadbar=  1.01063959278540E+05
 cg2d: Sum(rhs),rhsMax =  -8.58261713911995E+01  1.44718760150208E+00
(PID.TID 0000.0001)  ploadbar=  1.01064330254200E+05
 cg2d: Sum(rhs),rhsMax =  -8.54622928300946E+01  1.45305966673579E+00
(PID.TID 0000.0001)  ploadbar=  1.01064080050482E+05
 cg2d: Sum(rhs),rhsMax =  -8.51548597111759E+01  1.45800958322804E+00
(PID.TID 0000.0001)  ploadbar=  1.01063829846764E+05
 cg2d: Sum(rhs),rhsMax =  -8.48886637868792E+01  1.46227492700741E+00
(PID.TID 0000.0001)  ploadbar=  1.01063579643045E+05
 cg2d: Sum(rhs),rhsMax =  -8.46529125343962E+01  1.46602663634832E+00
(PID.TID 0000.0001)  ploadbar=  1.01063329439327E+05
 cg2d: Sum(rhs),rhsMax =  -8.44364635163966E+01  1.46944720614879E+00
(PID.TID 0000.0001)  ploadbar=  1.01063079235609E+05
 cg2d: Sum(rhs),rhsMax =  -8.42336854776331E+01  1.47262806010654E+00
(PID.TID 0000.0001)  ploadbar=  1.01062829031890E+05
 cg2d: Sum(rhs),rhsMax =  -8.40455092349400E+01  1.47561074684207E+00
(PID.TID 0000.0001)  ploadbar=  1.01061685611831E+05
 cg2d: Sum(rhs),rhsMax =  -8.42891767554418E+01  1.47106538717550E+00
(PID.TID 0000.0001)  ploadbar=  1.01060542191772E+05
 cg2d: Sum(rhs),rhsMax =  -8.54970339997058E+01  1.45003780389321E+00
(PID.TID 0000.0001)  ploadbar=  1.01059398771714E+05
 cg2d: Sum(rhs),rhsMax =  -8.68585025384377E+01  1.42709473771813E+00
(PID.TID 0000.0001)  ploadbar=  1.01058255351655E+05
 cg2d: Sum(rhs),rhsMax =  -8.83874121633820E+01  1.40222118233956E+00
(PID.TID 0000.0001)  ploadbar=  1.01057111931596E+05
 cg2d: Sum(rhs),rhsMax =  -9.00493596851957E+01  1.37617616464233E+00
(PID.TID 0000.0001)  ploadbar=  1.01055968511537E+05
 cg2d: Sum(rhs),rhsMax =  -9.16843763079692E+01  1.35144709941515E+00
(PID.TID 0000.0001)  ploadbar=  1.01054918432637E+05
 cg2d: Sum(rhs),rhsMax =  -9.32203730637589E+01  1.32896738556017E+00
(PID.TID 0000.0001)  ploadbar=  1.01053868353736E+05
 cg2d: Sum(rhs),rhsMax =  -9.45724844545340E+01  1.30972697288303E+00
(PID.TID 0000.0001)  ploadbar=  1.01052818274836E+05
 cg2d: Sum(rhs),rhsMax =  -9.53425845922863E+01  1.29887415068513E+00
(PID.TID 0000.0001)  ploadbar=  1.01051768195935E+05
 cg2d: Sum(rhs),rhsMax =  -9.50314555053114E+01  1.30281263982032E+00
(PID.TID 0000.0001)  ploadbar=  1.01050718117035E+05
 cg2d: Sum(rhs),rhsMax =  -9.47455713987737E+01  1.30638283841695E+00
(PID.TID 0000.0001)  ploadbar=  1.01049668038135E+05
 cg2d: Sum(rhs),rhsMax =  -9.44992523987654E+01  1.30945082063599E+00
(PID.TID 0000.0001)  ploadbar=  1.01048037349020E+05
 cg2d: Sum(rhs),rhsMax =  -9.42732486971455E+01  1.31227343867308E+00
(PID.TID 0000.0001)  ploadbar=  1.01046406659906E+05
 cg2d: Sum(rhs),rhsMax =  -9.40577840191613E+01  1.31498109128331E+00
(PID.TID 0000.0001)  ploadbar=  1.01044775970791E+05
 cg2d: Sum(rhs),rhsMax =  -9.38587306334622E+01  1.31748583292537E+00
(PID.TID 0000.0001)  ploadbar=  1.01043145281676E+05
 cg2d: Sum(rhs),rhsMax =  -9.36793675988321E+01  1.31973331225796E+00
(PID.TID 0000.0001)  ploadbar=  1.01041514592562E+05
 cg2d: Sum(rhs),rhsMax =  -9.35231584997759E+01  1.32166729338691E+00
(PID.TID 0000.0001)  ploadbar=  1.01039883903447E+05
 cg2d: Sum(rhs),rhsMax =  -9.34173495210896E+01  1.32287934872453E+00
(PID.TID 0000.0001)  ploadbar=  1.01039323224806E+05
 cg2d: Sum(rhs),rhsMax =  -9.33450631704449E+01  1.32360057036279E+00
(PID.TID 0000.0001)  ploadbar=  1.01038762546165E+05
 cg2d: Sum(rhs),rhsMax =  -9.28645056008466E+01  1.33012404976532E+00
(PID.TID 0000.0001)  ploadbar=  1.01038201867523E+05
 cg2d: Sum(rhs),rhsMax =  -9.19839637710191E+01  1.34250511002966E+00
(PID.TID 0000.0001)  ploadbar=  1.01037641188882E+05
 cg2d: Sum(rhs),rhsMax =  -9.06712566172698E+01  1.36155945402823E+00
(PID.TID 0000.0001)  ploadbar=  1.01037080510240E+05
 cg2d: Sum(rhs),rhsMax =  -8.92688713464298E+01  1.38253448015942E+00
(PID.TID 0000.0001)  ploadbar=  1.01036519831598E+05
 cg2d: Sum(rhs),rhsMax =  -8.76429813825981E+01  1.40778971264978E+00
(PID.TID 0000.0001)  ploadbar=  1.01036672051789E+05
 cg2d: Sum(rhs),rhsMax =  -8.61515551037929E+01  1.43178473714318E+00
(PID.TID 0000.0001)  ploadbar=  1.01036824271979E+05
 cg2d: Sum(rhs),rhsMax =  -8.48587192851926E+01  1.45323573079050E+00
(PID.TID 0000.0001)  ploadbar=  1.01036976492170E+05
 cg2d: Sum(rhs),rhsMax =  -8.37459119262110E+01  1.47219437386951E+00
(PID.TID 0000.0001)  ploadbar=  1.01037128712361E+05
 cg2d: Sum(rhs),rhsMax =  -8.27935417477319E+01  1.48878473287058E+00
(PID.TID 0000.0001)  ploadbar=  1.01037280932551E+05
 cg2d: Sum(rhs),rhsMax =  -8.20161259904154E+01  1.50255576763013E+00
(PID.TID 0000.0001)  ploadbar=  1.01037433152742E+05
 cg2d: Sum(rhs),rhsMax =  -8.18498338517858E+01  1.50522747378085E+00
(PID.TID 0000.0001)  ploadbar=  1.01037371101430E+05
 cg2d: Sum(rhs),rhsMax =  -8.18166199971278E+01  1.50541427016315E+00
(PID.TID 0000.0001)  ploadbar=  1.01037309050119E+05
 cg2d: Sum(rhs),rhsMax =  -8.18475839474514E+01  1.50437519658538E+00
(PID.TID 0000.0001)  ploadbar=  1.01037246998807E+05
 cg2d: Sum(rhs),rhsMax =  -8.19645796074346E+01  1.50170820545649E+00
(PID.TID 0000.0001)  ploadbar=  1.01037184947496E+05
 cg2d: Sum(rhs),rhsMax =  -8.21066882384657E+01  1.49853757556816E+00
(PID.TID 0000.0001)  ploadbar=  1.01037122896185E+05
 cg2d: Sum(rhs),rhsMax =  -8.22594542564560E+01  1.49512412998567E+00
(PID.TID 0000.0001)  ploadbar=  1.01037060844873E+05
 cg2d: Sum(rhs),rhsMax =  -8.25465529990911E+01  1.48935417827092E+00
(PID.TID 0000.0001)  ploadbar=  1.01037935849528E+05
 cg2d: Sum(rhs),rhsMax =  -8.28967229132626E+01  1.48254723093908E+00
(PID.TID 0000.0001)  ploadbar=  1.01038810854182E+05
 cg2d: Sum(rhs),rhsMax =  -8.33376438627422E+01  1.47423691029651E+00
(PID.TID 0000.0001)  ploadbar=  1.01039685858837E+05
 cg2d: Sum(rhs),rhsMax =  -8.38269027922731E+01  1.46520643298028E+00
(PID.TID 0000.0001)  ploadbar=  1.01040560863491E+05
 cg2d: Sum(rhs),rhsMax =  -8.43214148289598E+01  1.45622129105140E+00
(PID.TID 0000.0001)  ploadbar=  1.01041435868146E+05
 cg2d: Sum(rhs),rhsMax =  -8.47978158200313E+01  1.44767959869053E+00
(PID.TID 0000.0001)  ploadbar=  1.01042310872800E+05
 cg2d: Sum(rhs),rhsMax =  -8.52715230398731E+01  1.43928608888391E+00
(PID.TID 0000.0001)  ploadbar=  1.01042582000271E+05
 cg2d: Sum(rhs),rhsMax =  -8.57176233900261E+01  1.43144783226678E+00
(PID.TID 0000.0001)  ploadbar=  1.01042853127741E+05
 cg2d: Sum(rhs),rhsMax =  -8.62530650962648E+01  1.42221382333116E+00
(PID.TID 0000.0001)  ploadbar=  1.01043124255211E+05
 cg2d: Sum(rhs),rhsMax =  -8.73974304633037E+01  1.40324053105324E+00
(PID.TID 0000.0001)  ploadbar=  1.01043395382681E+05
 cg2d: Sum(rhs),rhsMax =  -8.73267016110992E+01  1.40401485219126E+00
(PID.TID 0000.0001)  ploadbar=  1.01043666510152E+05
 cg2d: Sum(rhs),rhsMax =  -8.67587878925439E+01  1.41282620983245E+00
(PID.TID 0000.0001)  ploadbar=  1.01043937637622E+05
 cg2d: Sum(rhs),rhsMax =  -8.63643002845983E+01  1.41891914531324E+00
(PID.TID 0000.0001)  ploadbar=  1.01044577937163E+05
 cg2d: Sum(rhs),rhsMax =  -8.60988263741195E+01  1.42294896115627E+00
(PID.TID 0000.0001)  ploadbar=  1.01045218236704E+05
 cg2d: Sum(rhs),rhsMax =  -8.59316287632500E+01  1.42538712172415E+00
(PID.TID 0000.0001)  ploadbar=  1.01045858536245E+05
 cg2d: Sum(rhs),rhsMax =  -8.58238978207397E+01  1.42685996073064E+00
(PID.TID 0000.0001)  ploadbar=  1.01046498835785E+05
 cg2d: Sum(rhs),rhsMax =  -8.57426154372900E+01  1.42790582426262E+00
(PID.TID 0000.0001)  ploadbar=  1.01047139135326E+05
 cg2d: Sum(rhs),rhsMax =  -8.56652678887407E+01  1.42889465086028E+00
(PID.TID 0000.0001)  ploadbar=  1.01047779434867E+05
 cg2d: Sum(rhs),rhsMax =  -8.55124241288883E+01  1.43112302855756E+00
(PID.TID 0000.0001)  ploadbar=  1.01048963318518E+05
 cg2d: Sum(rhs),rhsMax =  -8.53494481940694E+01  1.43350213815967E+00
(PID.TID 0000.0001)  ploadbar=  1.01050147202169E+05
 cg2d: Sum(rhs),rhsMax =  -8.52137223431590E+01  1.43539853548495E+00
(PID.TID 0000.0001)  ploadbar=  1.01051331085820E+05
 cg2d: Sum(rhs),rhsMax =  -8.51309995574126E+01  1.43637104231091E+00
(PID.TID 0000.0001)  ploadbar=  1.01052514969472E+05
 cg2d: Sum(rhs),rhsMax =  -8.51288836124895E+01  1.43594635201292E+00
(PID.TID 0000.0001)  ploadbar=  1.01053698853123E+05
 cg2d: Sum(rhs),rhsMax =  -8.52204187327713E+01  1.43390369825124E+00
(PID.TID 0000.0001)  ploadbar=  1.01054882736774E+05
 cg2d: Sum(rhs),rhsMax =  -8.53483385824173E+01  1.43128709260116E+00
(PID.TID 0000.0001)  ploadbar=  1.01054892950075E+05
 cg2d: Sum(rhs),rhsMax =  -8.55117252505046E+01  1.42811368061981E+00
(PID.TID 0000.0001)  ploadbar=  1.01054903163376E+05
 cg2d: Sum(rhs),rhsMax =  -8.56871702453598E+01  1.42477703401013E+00
(PID.TID 0000.0001)  ploadbar=  1.01054913376677E+05
 cg2d: Sum(rhs),rhsMax =  -8.58590268990446E+01  1.42153405490719E+00
(PID.TID 0000.0001)  ploadbar=  1.01054923589978E+05
 cg2d: Sum(rhs),rhsMax =  -8.60859564248378E+01  1.41741432981572E+00
(PID.TID 0000.0001)  ploadbar=  1.01054933803279E+05
 cg2d: Sum(rhs),rhsMax =  -8.63498645880369E+01  1.41272731318331E+00
(PID.TID 0000.0001)  ploadbar=  1.01054944016580E+05
 cg2d: Sum(rhs),rhsMax =  -8.66525417584745E+01  1.40742905672004E+00
(PID.TID 0000.0001)  ploadbar=  1.01056311396453E+05
 cg2d: Sum(rhs),rhsMax =  -8.72166593707180E+01  1.39795455689079E+00
(PID.TID 0000.0001)  ploadbar=  1.01057678776325E+05
 cg2d: Sum(rhs),rhsMax =  -8.87472220967517E+01  1.37346692002797E+00
(PID.TID 0000.0001)  ploadbar=  1.01059046156197E+05
 cg2d: Sum(rhs),rhsMax =  -9.02655296666040E+01  1.34997933813735E+00
(PID.TID 0000.0001)  ploadbar=  1.01060413536069E+05
 cg2d: Sum(rhs),rhsMax =  -9.17197465404180E+01  1.32818176833465E+00
(PID.TID 0000.0001)  ploadbar=  1.01061780915941E+05
 cg2d: Sum(rhs),rhsMax =  -9.22833708647894E+01  1.31966306397024E+00
(PID.TID 0000.0001)  ploadbar=  1.01063148295814E+05
 cg2d: Sum(rhs),rhsMax =  -9.21492684680513E+01  1.32118142730162E+00
(PID.TID 0000.0001)  ploadbar=  1.01064158484978E+05
 cg2d: Sum(rhs),rhsMax =  -9.18421565392940E+01  1.32519728561592E+00
(PID.TID 0000.0001)  ploadbar=  1.01065168674142E+05
 cg2d: Sum(rhs),rhsMax =  -9.11882141032543E+01  1.33429531175625E+00
(PID.TID 0000.0001)  ploadbar=  1.01066178863307E+05
 cg2d: Sum(rhs),rhsMax =  -9.03698132752383E+01  1.34596821784356E+00
(PID.TID 0000.0001)  ploadbar=  1.01067189052471E+05
 cg2d: Sum(rhs),rhsMax =  -8.95312615059292E+01  1.35815680890922E+00
(PID.TID 0000.0001)  ploadbar=  1.01068199241636E+05
 cg2d: Sum(rhs),rhsMax =  -8.88525520752155E+01  1.36810516047169E+00
(PID.TID 0000.0001)  ploadbar=  1.01069209430800E+05
 cg2d: Sum(rhs),rhsMax =  -8.83032006917055E+01  1.37614104545932E+00
(PID.TID 0000.0001)  ploadbar=  1.01069242967156E+05
 cg2d: Sum(rhs),rhsMax =  -8.79457839100642E+01  1.38120517864120E+00
(PID.TID 0000.0001)  ploadbar=  1.01069276503512E+05
 cg2d: Sum(rhs),rhsMax =  -8.77901183400068E+01  1.38307093489185E+00
(PID.TID 0000.0001)  ploadbar=  1.01069310039867E+05
 cg2d: Sum(rhs),rhsMax =  -8.78246021754101E+01  1.38189002407290E+00
(PID.TID 0000.0001)  ploadbar=  1.01069343576223E+05
 cg2d: Sum(rhs),rhsMax =  -8.80500187337978E+01  1.37765938531576E+00
(PID.TID 0000.0001)  ploadbar=  1.01069377112579E+05
 cg2d: Sum(rhs),rhsMax =  -8.84186079876730E+01  1.37116860944874E+00
(PID.TID 0000.0001)  ploadbar=  1.01069410648934E+05
 cg2d: Sum(rhs),rhsMax =  -8.87306498971472E+01  1.36564800297848E+00
(PID.TID 0000.0001)  ploadbar=  1.01069012949011E+05
 cg2d: Sum(rhs),rhsMax =  -8.88897737112755E+01  1.36254970039693E+00
(PID.TID 0000.0001)  ploadbar=  1.01068615249089E+05
 cg2d: Sum(rhs),rhsMax =  -8.87707814166108E+01  1.36376291053767E+00
(PID.TID 0000.0001)  ploadbar=  1.01068217549166E+05
 cg2d: Sum(rhs),rhsMax =  -8.82784176639299E+01  1.37079128301454E+00
(PID.TID 0000.0001)  ploadbar=  1.01067819849243E+05
 cg2d: Sum(rhs),rhsMax =  -8.75731764726750E+01  1.38128404352433E+00
(PID.TID 0000.0001)  ploadbar=  1.01067422149321E+05
 cg2d: Sum(rhs),rhsMax =  -8.67708067997730E+01  1.39353719930448E+00
(PID.TID 0000.0001)  ploadbar=  1.01067024449398E+05
 cg2d: Sum(rhs),rhsMax =  -8.59398529709079E+01  1.40647986654178E+00
(PID.TID 0000.0001)  ploadbar=  1.01066709699359E+05
 cg2d: Sum(rhs),rhsMax =  -8.50979727070839E+01  1.41984778033142E+00
(PID.TID 0000.0001)  ploadbar=  1.01066394949320E+05
 cg2d: Sum(rhs),rhsMax =  -8.42639750309375E+01  1.43333600465987E+00
(PID.TID 0000.0001)  ploadbar=  1.01066080199281E+05
 cg2d: Sum(rhs),rhsMax =  -8.34394844690927E+01  1.44691465706515E+00
(PID.TID 0000.0001)  ploadbar=  1.01065765449242E+05
 cg2d: Sum(rhs),rhsMax =  -8.26071092898506E+01  1.46089001498648E+00
(PID.TID 0000.0001)  ploadbar=  1.01065450699203E+05
 cg2d: Sum(rhs),rhsMax =  -8.17368077095002E+01  1.47582281160328E+00
(PID.TID 0000.0001)  ploadbar=  1.01065135949164E+05
 cg2d: Sum(rhs),rhsMax =  -8.08416362648018E+01  1.49156180217415E+00
(PID.TID 0000.0001)  ploadbar=  1.01065133642198E+05
 cg2d: Sum(rhs),rhsMax =  -7.99162949321813E+01  1.50824374212075E+00
(PID.TID 0000.0001)  ploadbar=  1.01065131335232E+05
 cg2d: Sum(rhs),rhsMax =  -7.89551341521556E+01  1.52602891994925E+00
(PID.TID 0000.0001)  ploadbar=  1.01065129028266E+05
 cg2d: Sum(rhs),rhsMax =  -7.79669292497645E+01  1.54480880565018E+00
(PID.TID 0000.0001)  ploadbar=  1.01065126721300E+05
 cg2d: Sum(rhs),rhsMax =  -7.69655965820471E+01  1.56435738928748E+00
(PID.TID 0000.0001)  ploadbar=  1.01065124414335E+05
 cg2d: Sum(rhs),rhsMax =  -7.60886310468422E+01  1.58184879174707E+00
(PID.TID 0000.0001)  ploadbar=  1.01065122107368E+05
 cg2d: Sum(rhs),rhsMax =  -7.52909484708696E+01  1.59806252077211E+00
(PID.TID 0000.0001)  ploadbar=  1.01064591708467E+05
 cg2d: Sum(rhs),rhsMax =  -7.45924873658334E+01  1.61246876485161E+00
(PID.TID 0000.0001)  ploadbar=  1.01064061309565E+05
 cg2d: Sum(rhs),rhsMax =  -7.40068282851543E+01  1.62465748709243E+00
(PID.TID 0000.0001)  ploadbar=  1.01063530910664E+05
 cg2d: Sum(rhs),rhsMax =  -7.35451819314323E+01  1.63426692324103E+00
(PID.TID 0000.0001)  ploadbar=  1.01063000511762E+05
 cg2d: Sum(rhs),rhsMax =  -7.32102541735866E+01  1.64113408377564E+00
(PID.TID 0000.0001)  ploadbar=  1.01062470112861E+05
 cg2d: Sum(rhs),rhsMax =  -7.29860633820962E+01  1.64554224565039E+00
(PID.TID 0000.0001)  ploadbar=  1.01061939713959E+05
 cg2d: Sum(rhs),rhsMax =  -7.27223915840686E+01  1.65090859800393E+00
(PID.TID 0000.0001)  ploadbar=  1.01060458265657E+05
 cg2d: Sum(rhs),rhsMax =  -7.23433353475006E+01  1.65898477379649E+00
(PID.TID 0000.0001)  ploadbar=  1.01058976817355E+05
 cg2d: Sum(rhs),rhsMax =  -7.18360693094160E+01  1.67014518145204E+00
(PID.TID 0000.0001)  ploadbar=  1.01057495369054E+05
 cg2d: Sum(rhs),rhsMax =  -7.12216075558376E+01  1.68401458142500E+00
(PID.TID 0000.0001)  ploadbar=  1.01056013920752E+05
 cg2d: Sum(rhs),rhsMax =  -7.05555738385778E+01  1.69938037342907E+00
(PID.TID 0000.0001)  ploadbar=  1.01054532472450E+05
 cg2d: Sum(rhs),rhsMax =  -6.98454188489856E+01  1.71613678994671E+00
(PID.TID 0000.0001)  ploadbar=  1.01053051024148E+05
 cg2d: Sum(rhs),rhsMax =  -6.92989215881236E+01  1.72911834228908E+00
(PID.TID 0000.0001)  ploadbar=  1.01051121961370E+05
 cg2d: Sum(rhs),rhsMax =  -6.90945983590753E+01  1.73364806360193E+00
(PID.TID 0000.0001)  ploadbar=  1.01049192898592E+05
 cg2d: Sum(rhs),rhsMax =  -6.88631985653373E+01  1.73885455968685E+00
(PID.TID 0000.0001)  ploadbar=  1.01047263835813E+05
 cg2d: Sum(rhs),rhsMax =  -6.86052797495019E+01  1.74473273682325E+00
(PID.TID 0000.0001)  ploadbar=  1.01045334773035E+05
 cg2d: Sum(rhs),rhsMax =  -6.83213541756037E+01  1.75127981867551E+00
(PID.TID 0000.0001)  ploadbar=  1.01043405710257E+05
 cg2d: Sum(rhs),rhsMax =  -6.80156016426497E+01  1.75840346251326E+00
(PID.TID 0000.0001)  ploadbar=  1.01041476647479E+05
 cg2d: Sum(rhs),rhsMax =  -6.76961202095503E+01  1.76594555296945E+00
(PID.TID 0000.0001)  ploadbar=  1.01038593197918E+05
 cg2d: Sum(rhs),rhsMax =  -6.73766529618643E+01  1.77354795265789E+00
(PID.TID 0000.0001)  ploadbar=  1.01035709748358E+05
 cg2d: Sum(rhs),rhsMax =  -6.70670392902238E+01  1.78094814146556E+00
(PID.TID 0000.0001)  ploadbar=  1.01032826298798E+05
 cg2d: Sum(rhs),rhsMax =  -6.67755609224194E+01  1.78791315976963E+00
(PID.TID 0000.0001)  ploadbar=  1.01029942849238E+05
 cg2d: Sum(rhs),rhsMax =  -6.65062930973185E+01  1.79431581656493E+00
(PID.TID 0000.0001)  ploadbar=  1.01027059399677E+05
 cg2d: Sum(rhs),rhsMax =  -6.62616385829090E+01  1.80007482979442E+00
(PID.TID 0000.0001)  ploadbar=  1.01024175950117E+05
 cg2d: Sum(rhs),rhsMax =  -6.60210941375276E+01  1.80576359838987E+00
(PID.TID 0000.0001)  ploadbar=  1.01022304886696E+05
 cg2d: Sum(rhs),rhsMax =  -6.57699107171329E+01  1.81178433539594E+00
(PID.TID 0000.0001)  ploadbar=  1.01020433823275E+05
 cg2d: Sum(rhs),rhsMax =  -6.55106469678790E+01  1.81806996208272E+00
(PID.TID 0000.0001)  ploadbar=  1.01018562759854E+05
 cg2d: Sum(rhs),rhsMax =  -6.52859082103172E+01  1.82343119106531E+00
(PID.TID 0000.0001)  ploadbar=  1.01016691696434E+05
 cg2d: Sum(rhs),rhsMax =  -6.50013649170822E+01  1.83049769588081E+00
(PID.TID 0000.0001)  ploadbar=  1.01014820633013E+05
 cg2d: Sum(rhs),rhsMax =  -6.47495261284281E+01  1.83668062927018E+00
(PID.TID 0000.0001)  ploadbar=  1.01012949569592E+05
 cg2d: Sum(rhs),rhsMax =  -6.44182617853956E+01  1.84523966932435E+00
(PID.TID 0000.0001)  ploadbar=  1.01012149004527E+05
 cg2d: Sum(rhs),rhsMax =  -6.39929981367873E+01  1.85666033291121E+00
(PID.TID 0000.0001)  ploadbar=  1.01011348439463E+05
 cg2d: Sum(rhs),rhsMax =  -6.35124120121779E+01  1.86990039181979E+00
(PID.TID 0000.0001)  ploadbar=  1.01010547874398E+05
 cg2d: Sum(rhs),rhsMax =  -6.30360632081387E+01  1.88324846345947E+00
(PID.TID 0000.0001)  ploadbar=  1.01009747309334E+05
 cg2d: Sum(rhs),rhsMax =  -6.26372802152387E+01  1.89448171377689E+00
(PID.TID 0000.0001)  ploadbar=  1.01008946744269E+05
 cg2d: Sum(rhs),rhsMax =  -6.22748691718388E+01  1.90477422208621E+00
(PID.TID 0000.0001)  ploadbar=  1.01008146179205E+05
 cg2d: Sum(rhs),rhsMax =  -6.19161525312950E+01  1.91507724953516E+00
(PID.TID 0000.0001)  ploadbar=  1.01007017803217E+05
 cg2d: Sum(rhs),rhsMax =  -6.15685117045112E+01  1.92515173167437E+00
(PID.TID 0000.0001)  ploadbar=  1.01005889427228E+05
 cg2d: Sum(rhs),rhsMax =  -6.12412442581003E+01  1.93468763574241E+00
(PID.TID 0000.0001)  ploadbar=  1.01004761051240E+05
 cg2d: Sum(rhs),rhsMax =  -6.09373939736862E+01  1.94356121107325E+00
(PID.TID 0000.0001)  ploadbar=  1.01003632675252E+05
 cg2d: Sum(rhs),rhsMax =  -6.06605753413375E+01  1.95163208995186E+00
(PID.TID 0000.0001)  ploadbar=  1.01002504299264E+05
 cg2d: Sum(rhs),rhsMax =  -6.04352533515417E+01  1.95808041965615E+00
(PID.TID 0000.0001)  ploadbar=  1.01001375923276E+05
 cg2d: Sum(rhs),rhsMax =  -6.02258270542841E+01  1.96406696183892E+00
(PID.TID 0000.0001)  ploadbar=  1.01000018794053E+05
 cg2d: Sum(rhs),rhsMax =  -6.00100048192298E+01  1.97030563107765E+00
(PID.TID 0000.0001)  ploadbar=  1.00998661664831E+05
 cg2d: Sum(rhs),rhsMax =  -5.98544787859836E+01  1.97459692410634E+00
(PID.TID 0000.0001)  ploadbar=  1.00997304535609E+05
 cg2d: Sum(rhs),rhsMax =  -5.98060926221254E+01  1.97536487401913E+00
(PID.TID 0000.0001)  ploadbar=  1.00995947406387E+05
 cg2d: Sum(rhs),rhsMax =  -5.98277183528577E+01  1.97381491612137E+00
(PID.TID 0000.0001)  ploadbar=  1.00994590277165E+05
 cg2d: Sum(rhs),rhsMax =  -5.99114707281635E+01  1.97020930697301E+00
(PID.TID 0000.0001)  ploadbar=  1.00993233147942E+05
 cg2d: Sum(rhs),rhsMax =  -6.00077024416349E+01  1.96620016456120E+00
(PID.TID 0000.0001)  ploadbar=  1.00993337934992E+05
 cg2d: Sum(rhs),rhsMax =  -6.00901702477911E+01  1.96263965921071E+00
(PID.TID 0000.0001)  ploadbar=  1.00993442722041E+05
 cg2d: Sum(rhs),rhsMax =  -6.01385385427007E+01  1.96018229426850E+00
(PID.TID 0000.0001)  ploadbar=  1.00993547509091E+05
 cg2d: Sum(rhs),rhsMax =  -6.01757822316008E+01  1.95806507915608E+00
(PID.TID 0000.0001)  ploadbar=  1.00993652296141E+05
 cg2d: Sum(rhs),rhsMax =  -6.01580734648382E+01  1.95770577377221E+00
(PID.TID 0000.0001)  ploadbar=  1.00993757083190E+05
 cg2d: Sum(rhs),rhsMax =  -6.01085398731224E+01  1.95834572034779E+00
(PID.TID 0000.0001)  ploadbar=  1.00993861870240E+05
 cg2d: Sum(rhs),rhsMax =  -6.00106790154610E+01  1.96062522261214E+00
(PID.TID 0000.0001)  ploadbar=  1.00994479700522E+05
 cg2d: Sum(rhs),rhsMax =  -5.99805010399109E+01  1.96075098393696E+00
(PID.TID 0000.0001)  ploadbar=  1.00995097530803E+05
 cg2d: Sum(rhs),rhsMax =  -6.01121676622506E+01  1.95564676748036E+00
(PID.TID 0000.0001)  ploadbar=  1.00995715361085E+05
 cg2d: Sum(rhs),rhsMax =  -6.03304879930370E+01  1.94780673436056E+00
(PID.TID 0000.0001)  ploadbar=  1.00996333191366E+05
 cg2d: Sum(rhs),rhsMax =  -6.06351059802315E+01  1.93730461048205E+00
(PID.TID 0000.0001)  ploadbar=  1.00996951021648E+05
 cg2d: Sum(rhs),rhsMax =  -6.10148406529759E+01  1.92457459406820E+00
(PID.TID 0000.0001)  ploadbar=  1.00997568851930E+05
 cg2d: Sum(rhs),rhsMax =  -6.14832574170374E+01  1.90924456637898E+00
(PID.TID 0000.0001)  ploadbar=  1.00998598852733E+05
 cg2d: Sum(rhs),rhsMax =  -6.20289417367250E+01  1.89178370938523E+00
(PID.TID 0000.0001)  ploadbar=  1.00999628853536E+05
 cg2d: Sum(rhs),rhsMax =  -6.26393776301204E+01  1.87268331209885E+00
(PID.TID 0000.0001)  ploadbar=  1.01000658854339E+05
 cg2d: Sum(rhs),rhsMax =  -6.33058910388812E+01  1.85229972961031E+00
(PID.TID 0000.0001)  ploadbar=  1.01001688855142E+05
 cg2d: Sum(rhs),rhsMax =  -6.40261319013380E+01  1.83078683034751E+00
(PID.TID 0000.0001)  ploadbar=  1.01002718855945E+05
 cg2d: Sum(rhs),rhsMax =  -6.48071829019888E+01  1.80803440960969E+00
(PID.TID 0000.0001)  ploadbar=  1.01003748856748E+05
 cg2d: Sum(rhs),rhsMax =  -6.56440462813074E+01  1.78433290341011E+00
(PID.TID 0000.0001)  ploadbar=  1.01003476315386E+05
 cg2d: Sum(rhs),rhsMax =  -6.65544021787699E+01  1.75930671566925E+00
(PID.TID 0000.0001)  ploadbar=  1.01003203774023E+05
 cg2d: Sum(rhs),rhsMax =  -6.75518994515434E+01  1.73273773612625E+00
(PID.TID 0000.0001)  ploadbar=  1.01002931232660E+05
 cg2d: Sum(rhs),rhsMax =  -6.86489641131808E+01  1.70448410970792E+00
(PID.TID 0000.0001)  ploadbar=  1.01002658691297E+05
 cg2d: Sum(rhs),rhsMax =  -6.98530501142606E+01  1.67456551921982E+00
(PID.TID 0000.0001)  ploadbar=  1.01002386149934E+05
 cg2d: Sum(rhs),rhsMax =  -7.11642225868929E+01  1.64319180699007E+00
(PID.TID 0000.0001)  ploadbar=  1.01002113608571E+05
 cg2d: Sum(rhs),rhsMax =  -7.25218715845143E+01  1.61188589375207E+00
(PID.TID 0000.0001)  ploadbar=  1.01002858278813E+05
 cg2d: Sum(rhs),rhsMax =  -7.39077465443670E+01  1.58109064911184E+00
(PID.TID 0000.0001)  ploadbar=  1.01003602949055E+05
 cg2d: Sum(rhs),rhsMax =  -7.53044938160350E+01  1.55116685975989E+00
(PID.TID 0000.0001)  ploadbar=  1.01004347619297E+05
 cg2d: Sum(rhs),rhsMax =  -7.67015396974242E+01  1.52228491162779E+00
(PID.TID 0000.0001)  ploadbar=  1.01005092289538E+05
 cg2d: Sum(rhs),rhsMax =  -7.80968501797120E+01  1.49442364820917E+00
(PID.TID 0000.0001)  ploadbar=  1.01005836959780E+05
 cg2d: Sum(rhs),rhsMax =  -7.95515363953917E+01  1.46639683904359E+00
(PID.TID 0000.0001)  ploadbar=  1.01006581630022E+05
 cg2d: Sum(rhs),rhsMax =  -8.09261533887642E+01  1.44085318512273E+00
(PID.TID 0000.0001)  ploadbar=  1.01006901708736E+05
 cg2d: Sum(rhs),rhsMax =  -8.24292498429662E+01  1.41400448746050E+00
(PID.TID 0000.0001)  ploadbar=  1.01007221787451E+05
 cg2d: Sum(rhs),rhsMax =  -8.40001258355712E+01  1.38704316424484E+00
(PID.TID 0000.0001)  ploadbar=  1.01007541866165E+05
 cg2d: Sum(rhs),rhsMax =  -8.28444903907209E+01  1.40591116913717E+00
(PID.TID 0000.0001)  ploadbar=  1.01007861944879E+05
 cg2d: Sum(rhs),rhsMax =  -8.08539018418084E+01  1.44007598160803E+00
(PID.TID 0000.0001)  ploadbar=  1.01008182023594E+05
 cg2d: Sum(rhs),rhsMax =  -7.89761232971482E+01  1.47390155230199E+00
(PID.TID 0000.0001)  ploadbar=  1.01008502102308E+05
 cg2d: Sum(rhs),rhsMax =  -7.72716051630723E+01  1.50598986203150E+00
(PID.TID 0000.0001)  ploadbar=  1.01009225040694E+05
 cg2d: Sum(rhs),rhsMax =  -7.57553633923702E+01  1.53569327978197E+00
(PID.TID 0000.0001)  ploadbar=  1.01009947979081E+05
 cg2d: Sum(rhs),rhsMax =  -7.44295327646588E+01  1.56259154789967E+00
(PID.TID 0000.0001)  ploadbar=  1.01010670917467E+05
 cg2d: Sum(rhs),rhsMax =  -7.32767249970728E+01  1.58669345858536E+00
(PID.TID 0000.0001)  ploadbar=  1.01011393855853E+05
 cg2d: Sum(rhs),rhsMax =  -7.22917646311570E+01  1.60780123108880E+00
(PID.TID 0000.0001)  ploadbar=  1.01012116794240E+05
 cg2d: Sum(rhs),rhsMax =  -7.14560693581041E+01  1.62606028611117E+00
(PID.TID 0000.0001)  ploadbar=  1.01012839732626E+05
 cg2d: Sum(rhs),rhsMax =  -7.06150817548665E+01  1.64491290579574E+00
(PID.TID 0000.0001)  ploadbar=  1.01013356025030E+05
 cg2d: Sum(rhs),rhsMax =  -6.97554968776763E+01  1.66469993417462E+00
(PID.TID 0000.0001)  ploadbar=  1.01013872317434E+05
 cg2d: Sum(rhs),rhsMax =  -6.88906444174849E+01  1.68514442178613E+00
(PID.TID 0000.0001)  ploadbar=  1.01014388609838E+05
 cg2d: Sum(rhs),rhsMax =  -6.80551272867750E+01  1.70540763216844E+00
(PID.TID 0000.0001)  ploadbar=  1.01014904902242E+05
 cg2d: Sum(rhs),rhsMax =  -6.72706133285855E+01  1.72489680424870E+00
(PID.TID 0000.0001)  ploadbar=  1.01015421194646E+05
 cg2d: Sum(rhs),rhsMax =  -6.65155695440867E+01  1.74409781201694E+00
(PID.TID 0000.0001)  ploadbar=  1.01015937487050E+05
 cg2d: Sum(rhs),rhsMax =  -6.58165306299628E+01  1.76218404774369E+00
(PID.TID 0000.0001)  ploadbar=  1.01016084950134E+05
 cg2d: Sum(rhs),rhsMax =  -6.49047252414923E+01  1.78643531354638E+00
(PID.TID 0000.0001)  ploadbar=  1.01016232413218E+05
 cg2d: Sum(rhs),rhsMax =  -6.36142258481537E+01  1.82209530693637E+00
(PID.TID 0000.0001)  ploadbar=  1.01016379876301E+05
 cg2d: Sum(rhs),rhsMax =  -6.19830113767253E+01  1.86937989325838E+00
(PID.TID 0000.0001)  ploadbar=  1.01016527339385E+05
 cg2d: Sum(rhs),rhsMax =  -6.00976913691186E+01  1.92725359718192E+00
(PID.TID 0000.0001)  ploadbar=  1.01016674802469E+05
 cg2d: Sum(rhs),rhsMax =  -5.80359122238689E+01  1.99483519129518E+00
(PID.TID 0000.0001)  ploadbar=  1.01016822265552E+05
 cg2d: Sum(rhs),rhsMax =  -5.61456159063923E+01  2.06113868464333E+00
(PID.TID 0000.0001)  ploadbar=  1.01016306178668E+05
 cg2d: Sum(rhs),rhsMax =  -5.44886097545839E+01  2.12298593377054E+00
(PID.TID 0000.0001)  ploadbar=  1.01015790091784E+05
 cg2d: Sum(rhs),rhsMax =  -5.31113127040651E+01  2.17723350104167E+00
(PID.TID 0000.0001)  ploadbar=  1.01015274004900E+05
 cg2d: Sum(rhs),rhsMax =  -5.19320256960237E+01  2.22589293313739E+00
(PID.TID 0000.0001)  ploadbar=  1.01014757918016E+05
 cg2d: Sum(rhs),rhsMax =  -5.09117553191681E+01  2.26973823635726E+00
(PID.TID 0000.0001)  ploadbar=  1.01014241831132E+05
 cg2d: Sum(rhs),rhsMax =  -5.00063305525524E+01  2.31008719898322E+00
(PID.TID 0000.0001)  ploadbar=  1.01013725744248E+05
 cg2d: Sum(rhs),rhsMax =  -4.91556587322474E+01  2.34929559908743E+00
(PID.TID 0000.0001)  ploadbar=  1.01013399963812E+05
 cg2d: Sum(rhs),rhsMax =  -4.82699585276448E+01  2.39159895392303E+00
(PID.TID 0000.0001)  ploadbar=  1.01013074183376E+05
 cg2d: Sum(rhs),rhsMax =  -4.73775544168525E+01  2.43579949602764E+00
(PID.TID 0000.0001)  ploadbar=  1.01012748402939E+05
 cg2d: Sum(rhs),rhsMax =  -4.64594730613691E+01  2.48303069896076E+00
(PID.TID 0000.0001)  ploadbar=  1.01012422622503E+05
 cg2d: Sum(rhs),rhsMax =  -4.56816399622592E+01  2.52434537601740E+00
(PID.TID 0000.0001)  ploadbar=  1.01012096842067E+05
 cg2d: Sum(rhs),rhsMax =  -4.45811946239274E+01  2.58561175678331E+00
(PID.TID 0000.0001)  ploadbar=  1.01011771061631E+05
 cg2d: Sum(rhs),rhsMax =  -4.33947185721189E+01  2.65528923639236E+00
(PID.TID 0000.0001)  ploadbar=  1.01011712036117E+05
 cg2d: Sum(rhs),rhsMax =  -4.25966902940379E+01  2.70404952356638E+00
(PID.TID 0000.0001)  ploadbar=  1.01011653010603E+05
 cg2d: Sum(rhs),rhsMax =  -4.17233967428115E+01  2.75969170292659E+00
(PID.TID 0000.0001)  ploadbar=  1.01011593985089E+05
 cg2d: Sum(rhs),rhsMax =  -4.08215238836065E+01  2.81973353292857E+00
(PID.TID 0000.0001)  ploadbar=  1.01011534959575E+05
 cg2d: Sum(rhs),rhsMax =  -3.97756349663595E+01  2.89296665209875E+00
(PID.TID 0000.0001)  ploadbar=  1.01011475934061E+05
 cg2d: Sum(rhs),rhsMax =  -3.86521325841331E+01  2.97615524674449E+00
(PID.TID 0000.0001)  ploadbar=  1.01011416908547E+05
 cg2d: Sum(rhs),rhsMax =  -3.76059161126321E+01  3.05799852027048E+00
(PID.TID 0000.0001)  ploadbar=  1.01010561734914E+05
 cg2d: Sum(rhs),rhsMax =  -3.66763982371584E+01  3.13447866515740E+00
(PID.TID 0000.0001)  ploadbar=  1.01009706561282E+05
 cg2d: Sum(rhs),rhsMax =  -3.62720275708628E+01  3.16833823322972E+00
(PID.TID 0000.0001)  ploadbar=  1.01008851387650E+05
 cg2d: Sum(rhs),rhsMax =  -3.64163319832118E+01  3.15464134650755E+00
(PID.TID 0000.0001)  ploadbar=  1.01007996214017E+05
 cg2d: Sum(rhs),rhsMax =  -3.69969929586214E+01  3.10393468887846E+00
(PID.TID 0000.0001)  ploadbar=  1.01007141040385E+05
 cg2d: Sum(rhs),rhsMax =  -3.80226872736811E+01  3.01896911995395E+00
(PID.TID 0000.0001)  ploadbar=  1.01006285866753E+05
 cg2d: Sum(rhs),rhsMax =  -3.94414846163854E+01  2.90930092428388E+00
(PID.TID 0000.0001)  ploadbar=  1.01005967279588E+05
 cg2d: Sum(rhs),rhsMax =  -4.08668367343765E+01  2.80690446583329E+00
(PID.TID 0000.0001)  ploadbar=  1.01005648692423E+05
 cg2d: Sum(rhs),rhsMax =  -4.17920282261943E+01  2.74395321493743E+00
(PID.TID 0000.0001)  ploadbar=  1.01005330105258E+05
 cg2d: Sum(rhs),rhsMax =  -4.11896141644651E+01  2.78334852823324E+00
(PID.TID 0000.0001)  ploadbar=  1.01005011518093E+05
 cg2d: Sum(rhs),rhsMax =  -4.01667257956859E+01  2.85355714245129E+00
(PID.TID 0000.0001)  ploadbar=  1.01004692930928E+05
 cg2d: Sum(rhs),rhsMax =  -3.93126712751926E+01  2.91494306225070E+00
(PID.TID 0000.0001)  ploadbar=  1.01004374343763E+05
 cg2d: Sum(rhs),rhsMax =  -3.85773613955771E+01  2.96981203483308E+00
(PID.TID 0000.0001)  ploadbar=  1.01004343837530E+05
 cg2d: Sum(rhs),rhsMax =  -3.79309371217626E+01  3.01964124798892E+00
(PID.TID 0000.0001)  ploadbar=  1.01004313331297E+05
 cg2d: Sum(rhs),rhsMax =  -3.75256496218807E+01  3.05137714194942E+00
(PID.TID 0000.0001)  ploadbar=  1.01004282825064E+05
 cg2d: Sum(rhs),rhsMax =  -3.73310573711938E+01  3.06630707073109E+00
(PID.TID 0000.0001)  ploadbar=  1.01004252318831E+05
 cg2d: Sum(rhs),rhsMax =  -3.72656764044159E+01  3.07060476139213E+00
(PID.TID 0000.0001)  ploadbar=  1.01004221812597E+05
 cg2d: Sum(rhs),rhsMax =  -3.73312453241166E+01  3.06402968707274E+00
(PID.TID 0000.0001)  ploadbar=  1.01004191306364E+05
 cg2d: Sum(rhs),rhsMax =  -3.71785120116107E+01  3.07549841330125E+00
(PID.TID 0000.0001)  ploadbar=  1.01005551507471E+05
 cg2d: Sum(rhs),rhsMax =  -3.71480896276073E+01  3.07695814398502E+00
(PID.TID 0000.0001)  ploadbar=  1.01006911708578E+05
 cg2d: Sum(rhs),rhsMax =  -3.73994784099847E+01  3.05527936931388E+00
(PID.TID 0000.0001)  ploadbar=  1.01008271909685E+05
 cg2d: Sum(rhs),rhsMax =  -3.76874472029009E+01  3.03099951462834E+00
(PID.TID 0000.0001)  ploadbar=  1.01009632110791E+05
 cg2d: Sum(rhs),rhsMax =  -3.78180379892899E+01  3.01964901371923E+00
(PID.TID 0000.0001)  ploadbar=  1.01010992311898E+05
 cg2d: Sum(rhs),rhsMax =  -3.82091677965998E+01  2.98790627805749E+00
(PID.TID 0000.0001)  ploadbar=  1.01012352513005E+05
 cg2d: Sum(rhs),rhsMax =  -3.85854635698739E+01  2.95792710179038E+00
(PID.TID 0000.0001)  ploadbar=  1.01012593443208E+05
 cg2d: Sum(rhs),rhsMax =  -3.92418361844299E+01  2.90759983623591E+00
(PID.TID 0000.0001)  ploadbar=  1.01012834373411E+05
 cg2d: Sum(rhs),rhsMax =  -4.00832138408498E+01  2.84570222707484E+00
(PID.TID 0000.0001)  ploadbar=  1.01013075303615E+05
 cg2d: Sum(rhs),rhsMax =  -4.08350502682188E+01  2.79242570734147E+00
(PID.TID 0000.0001)  ploadbar=  1.01013316233818E+05
 cg2d: Sum(rhs),rhsMax =  -4.14656766807750E+01  2.74904525006650E+00
(PID.TID 0000.0001)  ploadbar=  1.01013557164021E+05
 cg2d: Sum(rhs),rhsMax =  -4.19734536406337E+01  2.71484395223399E+00
(PID.TID 0000.0001)  ploadbar=  1.01013798094224E+05
 cg2d: Sum(rhs),rhsMax =  -4.23423600033395E+01  2.69030317624806E+00
(PID.TID 0000.0001)  ploadbar=  1.01016350008917E+05
 cg2d: Sum(rhs),rhsMax =  -4.25960844713242E+01  2.67343641560735E+00
(PID.TID 0000.0001)  ploadbar=  1.01018901923610E+05
 cg2d: Sum(rhs),rhsMax =  -4.27922602298241E+01  2.66037709017895E+00
(PID.TID 0000.0001)  ploadbar=  1.01021453838303E+05
 cg2d: Sum(rhs),rhsMax =  -4.31033488207075E+01  2.64041184508764E+00
(PID.TID 0000.0001)  ploadbar=  1.01024005752995E+05
 cg2d: Sum(rhs),rhsMax =  -4.37880607377483E+01  2.59840029250920E+00
(PID.TID 0000.0001)  ploadbar=  1.01026557667688E+05
 cg2d: Sum(rhs),rhsMax =  -4.47274531435692E+01  2.54314780418418E+00
(PID.TID 0000.0001)  ploadbar=  1.01029109582381E+05
 cg2d: Sum(rhs),rhsMax =  -4.58349550464420E+01  2.48106901678305E+00
(PID.TID 0000.0001)  ploadbar=  1.01031451268125E+05
 cg2d: Sum(rhs),rhsMax =  -4.70491386385085E+01  2.41645446695893E+00
(PID.TID 0000.0001)  ploadbar=  1.01033792953870E+05
 cg2d: Sum(rhs),rhsMax =  -4.58267349555443E+01  2.48032796027107E+00
(PID.TID 0000.0001)  ploadbar=  1.01036134639614E+05
 cg2d: Sum(rhs),rhsMax =  -4.38932503535941E+01  2.58898675366469E+00
(PID.TID 0000.0001)  ploadbar=  1.01038476325359E+05
 cg2d: Sum(rhs),rhsMax =  -4.21759767014303E+01  2.69377827327791E+00
(PID.TID 0000.0001)  ploadbar=  1.01040818011103E+05
 cg2d: Sum(rhs),rhsMax =  -4.06402270168274E+01  2.79491793539885E+00
(PID.TID 0000.0001)  ploadbar=  1.01043159696848E+05
 cg2d: Sum(rhs),rhsMax =  -3.92817649911818E+01  2.89092503392299E+00
(PID.TID 0000.0001)  ploadbar=  1.01045521240953E+05
 cg2d: Sum(rhs),rhsMax =  -3.81133705083636E+01  2.97890754133635E+00
(PID.TID 0000.0001)  ploadbar=  1.01047882785058E+05
 cg2d: Sum(rhs),rhsMax =  -3.71328942623279E+01  3.05692924261659E+00
(PID.TID 0000.0001)  ploadbar=  1.01050244329163E+05
 cg2d: Sum(rhs),rhsMax =  -3.63334894486521E+01  3.12355730378161E+00
(PID.TID 0000.0001)  ploadbar=  1.01052605873268E+05
 cg2d: Sum(rhs),rhsMax =  -3.56721241859443E+01  3.18083758629309E+00
(PID.TID 0000.0001)  ploadbar=  1.01054967417373E+05
 cg2d: Sum(rhs),rhsMax =  -3.51525762730542E+01  3.22721419365192E+00
(PID.TID 0000.0001)  ploadbar=  1.01057328961479E+05
 cg2d: Sum(rhs),rhsMax =  -3.48024296685706E+01  3.25898684040812E+00
(PID.TID 0000.0001)  ploadbar=  1.01058414463418E+05
 cg2d: Sum(rhs),rhsMax =  -3.45610714098476E+01  3.28097832113903E+00
(PID.TID 0000.0001)  ploadbar=  1.01059499965357E+05
 cg2d: Sum(rhs),rhsMax =  -3.44220424093418E+01  3.29338609954797E+00
(PID.TID 0000.0001)  ploadbar=  1.01060585467295E+05
 cg2d: Sum(rhs),rhsMax =  -3.43672927925763E+01  3.29770686309913E+00
(PID.TID 0000.0001)  ploadbar=  1.01061670969234E+05
 cg2d: Sum(rhs),rhsMax =  -3.43755534961136E+01  3.29589605453287E+00
(PID.TID 0000.0001)  ploadbar=  1.01062756471173E+05
 cg2d: Sum(rhs),rhsMax =  -3.44297726963908E+01  3.28958321750569E+00
(PID.TID 0000.0001)  ploadbar=  1.01063841973112E+05
 cg2d: Sum(rhs),rhsMax =  -3.45222277749571E+01  3.27973870570091E+00
(PID.TID 0000.0001)  ploadbar=  1.01063451579496E+05
 cg2d: Sum(rhs),rhsMax =  -3.46454559572592E+01  3.26711923619906E+00
(PID.TID 0000.0001)  ploadbar=  1.01063061185879E+05
 cg2d: Sum(rhs),rhsMax =  -3.48039891281597E+01  3.25135796495693E+00
(PID.TID 0000.0001)  ploadbar=  1.01062670792263E+05
 cg2d: Sum(rhs),rhsMax =  -3.50017905530719E+01  3.23216739790247E+00
(PID.TID 0000.0001)  ploadbar=  1.01062280398647E+05
 cg2d: Sum(rhs),rhsMax =  -3.52418190240760E+01  3.20939447648818E+00
(PID.TID 0000.0001)  ploadbar=  1.01061890005031E+05
 cg2d: Sum(rhs),rhsMax =  -3.55278056538484E+01  3.18285432278835E+00
(PID.TID 0000.0001)  ploadbar=  1.01061499611414E+05
 cg2d: Sum(rhs),rhsMax =  -3.58403969205400E+01  3.15435594599199E+00
(PID.TID 0000.0001)  ploadbar=  1.01061195176100E+05
 cg2d: Sum(rhs),rhsMax =  -3.61788081075311E+01  3.12407007964618E+00
(PID.TID 0000.0001)  ploadbar=  1.01060890740785E+05
 cg2d: Sum(rhs),rhsMax =  -3.65407063212942E+01  3.09230188676640E+00
(PID.TID 0000.0001)  ploadbar=  1.01060586305470E+05
 cg2d: Sum(rhs),rhsMax =  -3.69212037963090E+01  3.05955747074617E+00
(PID.TID 0000.0001)  ploadbar=  1.01060281870155E+05
 cg2d: Sum(rhs),rhsMax =  -3.73182287146765E+01  3.02607042089855E+00
(PID.TID 0000.0001)  ploadbar=  1.01059977434840E+05
 cg2d: Sum(rhs),rhsMax =  -3.77311655548259E+01  2.99194634925718E+00
(PID.TID 0000.0001)  ploadbar=  1.01059672999526E+05
 cg2d: Sum(rhs),rhsMax =  -3.81414359482257E+01  2.95882189093991E+00
(PID.TID 0000.0001)  ploadbar=  1.01059262190127E+05
 cg2d: Sum(rhs),rhsMax =  -3.85624281942893E+01  2.92563749593289E+00
(PID.TID 0000.0001)  ploadbar=  1.01058851380729E+05
 cg2d: Sum(rhs),rhsMax =  -3.89911907875476E+01  2.89263702543525E+00
(PID.TID 0000.0001)  ploadbar=  1.01058440571330E+05
 cg2d: Sum(rhs),rhsMax =  -3.94228177342487E+01  2.86018464381715E+00
(PID.TID 0000.0001)  ploadbar=  1.01058029761932E+05
 cg2d: Sum(rhs),rhsMax =  -3.98526005935597E+01  2.82859266083667E+00
(PID.TID 0000.0001)  ploadbar=  1.01057618952533E+05
 cg2d: Sum(rhs),rhsMax =  -4.02756286224783E+01  2.79815718641747E+00
(PID.TID 0000.0001)  ploadbar=  1.01057208143135E+05
 cg2d: Sum(rhs),rhsMax =  -4.06936115707995E+01  2.76867069872055E+00
(PID.TID 0000.0001)  ploadbar=  1.01057744515797E+05
 cg2d: Sum(rhs),rhsMax =  -4.11185987968657E+01  2.73927990192965E+00
(PID.TID 0000.0001)  ploadbar=  1.01058280888458E+05
 cg2d: Sum(rhs),rhsMax =  -4.15630042447214E+01  2.70918187621243E+00
(PID.TID 0000.0001)  ploadbar=  1.01058817261120E+05
 cg2d: Sum(rhs),rhsMax =  -4.20326829709583E+01  2.67806185208288E+00
(PID.TID 0000.0001)  ploadbar=  1.01059353633782E+05
 cg2d: Sum(rhs),rhsMax =  -4.25291418433419E+01  2.64590556506169E+00
(PID.TID 0000.0001)  ploadbar=  1.01059890006444E+05
 cg2d: Sum(rhs),rhsMax =  -4.30493474169592E+01  2.61298284498466E+00
(PID.TID 0000.0001)  ploadbar=  1.01060426379105E+05
 cg2d: Sum(rhs),rhsMax =  -4.35692883471397E+01  2.58092762110704E+00
(PID.TID 0000.0001)  ploadbar=  1.01060609737929E+05
 cg2d: Sum(rhs),rhsMax =  -4.40771614396391E+01  2.55038781236421E+00
(PID.TID 0000.0001)  ploadbar=  1.01060793096753E+05
 cg2d: Sum(rhs),rhsMax =  -4.45586969375255E+01  2.52208918448491E+00
(PID.TID 0000.0001)  ploadbar=  1.01060976455577E+05
 cg2d: Sum(rhs),rhsMax =  -4.50116575804336E+01  2.49602561807574E+00
(PID.TID 0000.0001)  ploadbar=  1.01061159814401E+05
 cg2d: Sum(rhs),rhsMax =  -4.54383299110451E+01  2.47194988860335E+00
(PID.TID 0000.0001)  ploadbar=  1.01061343173225E+05
 cg2d: Sum(rhs),rhsMax =  -4.58423155808508E+01  2.44956462429267E+00
(PID.TID 0000.0001)  ploadbar=  1.01061526532049E+05
 cg2d: Sum(rhs),rhsMax =  -4.62394651092806E+01  2.42792733624906E+00
(PID.TID 0000.0001)  ploadbar=  1.01060913040665E+05
 cg2d: Sum(rhs),rhsMax =  -4.66304161116977E+01  2.40696715535657E+00
(PID.TID 0000.0001)  ploadbar=  1.01060299549280E+05
 cg2d: Sum(rhs),rhsMax =  -4.70244271186718E+01  2.38618313515671E+00
(PID.TID 0000.0001)  ploadbar=  1.01059686057896E+05
 cg2d: Sum(rhs),rhsMax =  -4.74233418996533E+01  2.36547336593490E+00
(PID.TID 0000.0001)  ploadbar=  1.01059072566512E+05
 cg2d: Sum(rhs),rhsMax =  -4.78270588179834E+01  2.34483696514810E+00
(PID.TID 0000.0001)  ploadbar=  1.01058459075128E+05
 cg2d: Sum(rhs),rhsMax =  -4.82340979455997E+01  2.32434172507392E+00
(PID.TID 0000.0001)  ploadbar=  1.01057845583744E+05
 cg2d: Sum(rhs),rhsMax =  -4.86349144746862E+01  2.30453893485454E+00
(PID.TID 0000.0001)  ploadbar=  1.01057382400916E+05
 cg2d: Sum(rhs),rhsMax =  -4.90432402020600E+01  2.28475947954827E+00
(PID.TID 0000.0001)  ploadbar=  1.01056919218087E+05
 cg2d: Sum(rhs),rhsMax =  -4.94251567664388E+01  2.26656535460840E+00
(PID.TID 0000.0001)  ploadbar=  1.01056456035258E+05
 cg2d: Sum(rhs),rhsMax =  -4.94416756024581E+01  2.26531237930014E+00
(PID.TID 0000.0001)  ploadbar=  1.01055992852430E+05
 cg2d: Sum(rhs),rhsMax =  -4.94530808881860E+01  2.26433103047890E+00
(PID.TID 0000.0001)  ploadbar=  1.01055529669601E+05
 cg2d: Sum(rhs),rhsMax =  -4.94688995475146E+01  2.26317874187590E+00
(PID.TID 0000.0001)  ploadbar=  1.01055066486772E+05
 cg2d: Sum(rhs),rhsMax =  -4.94880438748629E+01  2.26187303221317E+00
(PID.TID 0000.0001)  ploadbar=  1.01054246324216E+05
 cg2d: Sum(rhs),rhsMax =  -4.95078461296544E+01  2.26052718798980E+00
(PID.TID 0000.0001)  ploadbar=  1.01053426161659E+05
 cg2d: Sum(rhs),rhsMax =  -4.95248759719938E+01  2.25929258210294E+00
(PID.TID 0000.0001)  ploadbar=  1.01052605999103E+05
 cg2d: Sum(rhs),rhsMax =  -4.95392134070589E+01  2.25816226621493E+00
(PID.TID 0000.0001)  ploadbar=  1.01051785836546E+05
 cg2d: Sum(rhs),rhsMax =  -4.95510966477819E+01  2.25711948727193E+00
(PID.TID 0000.0001)  ploadbar=  1.01050965673989E+05
 cg2d: Sum(rhs),rhsMax =  -4.95608905571608E+01  2.25614266393433E+00
(PID.TID 0000.0001)  ploadbar=  1.01050145511433E+05
 cg2d: Sum(rhs),rhsMax =  -4.95624588077252E+01  2.25556965781142E+00
(PID.TID 0000.0001)  ploadbar=  1.01048355450267E+05
 cg2d: Sum(rhs),rhsMax =  -4.95649998196034E+01  2.25498062731966E+00
(PID.TID 0000.0001)  ploadbar=  1.01046565389101E+05
 cg2d: Sum(rhs),rhsMax =  -4.95675676805280E+01  2.25441599641798E+00
(PID.TID 0000.0001)  ploadbar=  1.01044775327935E+05
 cg2d: Sum(rhs),rhsMax =  -4.95695155958534E+01  2.25390121989993E+00
(PID.TID 0000.0001)  ploadbar=  1.01042985266770E+05
 cg2d: Sum(rhs),rhsMax =  -4.95701377045715E+01  2.25346294380149E+00
(PID.TID 0000.0001)  ploadbar=  1.01041195205604E+05
 cg2d: Sum(rhs),rhsMax =  -4.95756713410758E+01  2.25281279925177E+00
(PID.TID 0000.0001)  ploadbar=  1.01039405144438E+05
 cg2d: Sum(rhs),rhsMax =  -4.95702236725546E+01  2.25263732102581E+00
(PID.TID 0000.0001)  ploadbar=  1.01037768616506E+05
 cg2d: Sum(rhs),rhsMax =  -4.95512501858347E+01  2.25304767886501E+00
(PID.TID 0000.0001)  ploadbar=  1.01036132088575E+05
 cg2d: Sum(rhs),rhsMax =  -4.95245790566768E+01  2.25377481707515E+00
(PID.TID 0000.0001)  ploadbar=  1.01034495560643E+05
 cg2d: Sum(rhs),rhsMax =  -4.94907636060554E+01  2.25479011636237E+00
(PID.TID 0000.0001)  ploadbar=  1.01032859032712E+05
 cg2d: Sum(rhs),rhsMax =  -4.94499200120706E+01  2.25608299473763E+00
(PID.TID 0000.0001)  ploadbar=  1.01031222504780E+05
 cg2d: Sum(rhs),rhsMax =  -4.94029154434165E+01  2.25760770815663E+00
(PID.TID 0000.0001)  ploadbar=  1.01029585976849E+05
 cg2d: Sum(rhs),rhsMax =  -4.93514890290124E+01  2.25938496604838E+00
(PID.TID 0000.0001)  ploadbar=  1.01028903624495E+05
 cg2d: Sum(rhs),rhsMax =  -4.92939952663361E+01  2.26148667294759E+00
(PID.TID 0000.0001)  ploadbar=  1.01028221272140E+05
 cg2d: Sum(rhs),rhsMax =  -4.92359836568271E+01  2.26366143426178E+00
(PID.TID 0000.0001)  ploadbar=  1.01027538919786E+05
 cg2d: Sum(rhs),rhsMax =  -4.91800185022333E+01  2.26578567077434E+00
(PID.TID 0000.0001)  ploadbar=  1.01026856567431E+05
 cg2d: Sum(rhs),rhsMax =  -4.91266248194649E+01  2.26783060772793E+00
(PID.TID 0000.0001)  ploadbar=  1.01026174215077E+05
 cg2d: Sum(rhs),rhsMax =  -4.90765052448338E+01  2.26975856597025E+00
(PID.TID 0000.0001)  ploadbar=  1.01025491862722E+05
 cg2d: Sum(rhs),rhsMax =  -4.90307394256195E+01  2.27146311430275E+00
(PID.TID 0000.0001)  ploadbar=  1.01025047937463E+05
 cg2d: Sum(rhs),rhsMax =  -4.89899419551991E+01  2.27290854756356E+00
(PID.TID 0000.0001)  ploadbar=  1.01024604012204E+05
 cg2d: Sum(rhs),rhsMax =  -4.89582026227569E+01  2.27389863217064E+00
(PID.TID 0000.0001)  ploadbar=  1.01024160086945E+05
 cg2d: Sum(rhs),rhsMax =  -4.89369508039496E+01  2.27436278191817E+00
(PID.TID 0000.0001)  ploadbar=  1.01023716161686E+05
 cg2d: Sum(rhs),rhsMax =  -4.89271182449163E+01  2.27425563244528E+00
(PID.TID 0000.0001)  ploadbar=  1.01023272236427E+05
 cg2d: Sum(rhs),rhsMax =  -4.89295601088684E+01  2.27353001289711E+00
(PID.TID 0000.0001)  ploadbar=  1.01022828311168E+05
 cg2d: Sum(rhs),rhsMax =  -4.89513474825660E+01  2.27193138523008E+00
(PID.TID 0000.0001)  ploadbar=  1.01023412649126E+05
 cg2d: Sum(rhs),rhsMax =  -4.89880280385206E+01  2.26966571269015E+00
(PID.TID 0000.0001)  ploadbar=  1.01023996987085E+05
 cg2d: Sum(rhs),rhsMax =  -4.90370603279700E+01  2.26684886616296E+00
(PID.TID 0000.0001)  ploadbar=  1.01024581325043E+05
 cg2d: Sum(rhs),rhsMax =  -4.90968994673010E+01  2.26354911873177E+00
(PID.TID 0000.0001)  ploadbar=  1.01025165663001E+05
 cg2d: Sum(rhs),rhsMax =  -4.91655732267964E+01  2.25985029374364E+00
(PID.TID 0000.0001)  ploadbar=  1.01025750000959E+05
 cg2d: Sum(rhs),rhsMax =  -4.92421316254613E+01  2.25579179113382E+00
(PID.TID 0000.0001)  ploadbar=  1.01026334338918E+05
 cg2d: Sum(rhs),rhsMax =  -4.93296657455926E+01  2.25123512221310E+00
(PID.TID 0000.0001)  ploadbar=  1.01026465902956E+05
 cg2d: Sum(rhs),rhsMax =  -4.94226213342059E+01  2.24643247065673E+00
(PID.TID 0000.0001)  ploadbar=  1.01026597466995E+05
 cg2d: Sum(rhs),rhsMax =  -4.95233103013069E+01  2.24127613495084E+00
(PID.TID 0000.0001)  ploadbar=  1.01026729031034E+05
 cg2d: Sum(rhs),rhsMax =  -4.96270285138173E+01  2.23597806519318E+00
(PID.TID 0000.0001)  ploadbar=  1.01026860595073E+05
 cg2d: Sum(rhs),rhsMax =  -4.97315578598453E+01  2.23063454377273E+00
(PID.TID 0000.0001)  ploadbar=  1.01026992159112E+05
 cg2d: Sum(rhs),rhsMax =  -4.98356825417214E+01  2.22529570443316E+00
(PID.TID 0000.0001)  ploadbar=  1.01027123723151E+05
 cg2d: Sum(rhs),rhsMax =  -4.99423529839953E+01  2.21987704106113E+00
(PID.TID 0000.0001)  ploadbar=  1.01026758008447E+05
 cg2d: Sum(rhs),rhsMax =  -5.00467370423281E+01  2.21458630824878E+00
(PID.TID 0000.0001)  ploadbar=  1.01026392293742E+05
 cg2d: Sum(rhs),rhsMax =  -5.01462961491545E+01  2.20952841826300E+00
(PID.TID 0000.0001)  ploadbar=  1.01026026579038E+05
 cg2d: Sum(rhs),rhsMax =  -5.02378401271869E+01  2.20483444884755E+00
(PID.TID 0000.0001)  ploadbar=  1.01025660864334E+05
 cg2d: Sum(rhs),rhsMax =  -5.03229770435240E+01  2.20041864818350E+00
(PID.TID 0000.0001)  ploadbar=  1.01025295149629E+05
 cg2d: Sum(rhs),rhsMax =  -5.04015940268780E+01  2.19627702489540E+00
(PID.TID 0000.0001)  ploadbar=  1.01024929434925E+05
 cg2d: Sum(rhs),rhsMax =  -5.04774034339851E+01  2.19229866506715E+00
(PID.TID 0000.0001)  ploadbar=  1.01024534132106E+05
 cg2d: Sum(rhs),rhsMax =  -5.05512649936655E+01  2.18843960351145E+00
(PID.TID 0000.0001)  ploadbar=  1.01024138829286E+05
 cg2d: Sum(rhs),rhsMax =  -5.06219364339404E+01  2.18474751403590E+00
(PID.TID 0000.0001)  ploadbar=  1.01023743526467E+05
 cg2d: Sum(rhs),rhsMax =  -5.06897914190282E+01  2.18119494738940E+00
(PID.TID 0000.0001)  ploadbar=  1.01023348223647E+05
 cg2d: Sum(rhs),rhsMax =  -5.07561468570687E+01  2.17771775986600E+00
(PID.TID 0000.0001)  ploadbar=  1.01022952920828E+05
 cg2d: Sum(rhs),rhsMax =  -5.08252957941232E+01  2.17412392973621E+00
(PID.TID 0000.0001)  ploadbar=  1.01022557618008E+05
 cg2d: Sum(rhs),rhsMax =  -5.09145596822411E+01  2.16973143292611E+00
(PID.TID 0000.0001)  ploadbar=  1.01023299677392E+05
 cg2d: Sum(rhs),rhsMax =  -5.10381330113923E+01  2.16394355659582E+00
(PID.TID 0000.0001)  ploadbar=  1.01024041736776E+05
 cg2d: Sum(rhs),rhsMax =  -5.11980201166695E+01  2.15669270634896E+00
(PID.TID 0000.0001)  ploadbar=  1.01024783796161E+05
 cg2d: Sum(rhs),rhsMax =  -5.13940866941739E+01  2.14800658604358E+00
(PID.TID 0000.0001)  ploadbar=  1.01025525855545E+05
 cg2d: Sum(rhs),rhsMax =  -5.16244798660221E+01  2.13798962829509E+00
(PID.TID 0000.0001)  ploadbar=  1.01026267914929E+05
 cg2d: Sum(rhs),rhsMax =  -5.18888357048053E+01  2.12668591923513E+00
(PID.TID 0000.0001)  ploadbar=  1.01027009974313E+05
 cg2d: Sum(rhs),rhsMax =  -5.21823216662057E+01  2.11435350938874E+00
(PID.TID 0000.0001)  ploadbar=  1.01026606544881E+05
 cg2d: Sum(rhs),rhsMax =  -5.25059652435439E+01  2.10098366191138E+00
(PID.TID 0000.0001)  ploadbar=  1.01026203115448E+05
 cg2d: Sum(rhs),rhsMax =  -5.28419007733879E+01  2.08731772954933E+00
(PID.TID 0000.0001)  ploadbar=  1.01025799686016E+05
 cg2d: Sum(rhs),rhsMax =  -5.31842293732595E+01  2.07359377402872E+00
(PID.TID 0000.0001)  ploadbar=  1.01025396256584E+05
 cg2d: Sum(rhs),rhsMax =  -5.35293395836495E+01  2.05995257314439E+00
(PID.TID 0000.0001)  ploadbar=  1.01024992827152E+05
 cg2d: Sum(rhs),rhsMax =  -5.38703450415712E+01  2.04665047737237E+00
(PID.TID 0000.0001)  ploadbar=  1.01024589397720E+05
 cg2d: Sum(rhs),rhsMax =  -5.41749791464892E+01  2.03487208439831E+00
(PID.TID 0000.0001)  ploadbar=  1.01023975649582E+05
 cg2d: Sum(rhs),rhsMax =  -5.44448648156871E+01  2.02451219901504E+00
(PID.TID 0000.0001)  ploadbar=  1.01023361901445E+05
 cg2d: Sum(rhs),rhsMax =  -5.46624571010452E+01  2.01617289851573E+00
(PID.TID 0000.0001)  ploadbar=  1.01022748153308E+05
 cg2d: Sum(rhs),rhsMax =  -5.48274853499013E+01  2.00981317596005E+00
(PID.TID 0000.0001)  ploadbar=  1.01022134405171E+05
 cg2d: Sum(rhs),rhsMax =  -5.49511386150767E+01  2.00498368356827E+00
(PID.TID 0000.0001)  ploadbar=  1.01021520657034E+05
 cg2d: Sum(rhs),rhsMax =  -5.50482253992045E+01  2.00111848850022E+00
(PID.TID 0000.0001)  ploadbar=  1.01020906908897E+05
 cg2d: Sum(rhs),rhsMax =  -5.51264762875970E+01  1.99798708027658E+00
(PID.TID 0000.0001)  ploadbar=  1.01020955911927E+05
 cg2d: Sum(rhs),rhsMax =  -5.51975122921061E+01  1.99515976320785E+00
(PID.TID 0000.0001)  ploadbar=  1.01021004914958E+05
 cg2d: Sum(rhs),rhsMax =  -5.52577352625551E+01  1.99275838421108E+00
(PID.TID 0000.0001)  ploadbar=  1.01021053917988E+05
 cg2d: Sum(rhs),rhsMax =  -5.52966554089484E+01  1.99115035218086E+00
(PID.TID 0000.0001)  ploadbar=  1.01021102921018E+05
 cg2d: Sum(rhs),rhsMax =  -5.52961894301076E+01  1.99097679539326E+00
(PID.TID 0000.0001)  ploadbar=  1.01021151924048E+05
 cg2d: Sum(rhs),rhsMax =  -5.52363431145331E+01  1.99295021183089E+00
(PID.TID 0000.0001)  ploadbar=  1.01021200927078E+05
 cg2d: Sum(rhs),rhsMax =  -5.50920095238695E+01  1.99801605893751E+00
(PID.TID 0000.0001)  ploadbar=  1.01021240021388E+05
 cg2d: Sum(rhs),rhsMax =  -5.48697537652053E+01  2.00597870119677E+00
(PID.TID 0000.0001)  ploadbar=  1.01021279115698E+05
 cg2d: Sum(rhs),rhsMax =  -5.46095126500795E+01  2.01542804652692E+00
(PID.TID 0000.0001)  ploadbar=  1.01021318210009E+05
 cg2d: Sum(rhs),rhsMax =  -5.43116937531422E+01  2.02638555802024E+00
(PID.TID 0000.0001)  ploadbar=  1.01021357304319E+05
 cg2d: Sum(rhs),rhsMax =  -5.39867075757897E+01  2.03850154195530E+00
(PID.TID 0000.0001)  ploadbar=  1.01021396398629E+05
 cg2d: Sum(rhs),rhsMax =  -5.36501189854052E+01  2.05121360494575E+00
(PID.TID 0000.0001)  ploadbar=  1.01021435492939E+05
 cg2d: Sum(rhs),rhsMax =  -5.33686398489218E+01  2.06197243386341E+00
(PID.TID 0000.0001)  ploadbar=  1.01022319737040E+05
 cg2d: Sum(rhs),rhsMax =  -5.31116044729378E+01  2.07190741760169E+00
(PID.TID 0000.0001)  ploadbar=  1.01023203981140E+05
 cg2d: Sum(rhs),rhsMax =  -5.28940484639481E+01  2.08039225548852E+00
(PID.TID 0000.0001)  ploadbar=  1.01024088225240E+05
 cg2d: Sum(rhs),rhsMax =  -5.27180652125343E+01  2.08730238301353E+00
(PID.TID 0000.0001)  ploadbar=  1.01024972469341E+05
 cg2d: Sum(rhs),rhsMax =  -5.25777784840254E+01  2.09283244949551E+00
(PID.TID 0000.0001)  ploadbar=  1.01025856713441E+05
 cg2d: Sum(rhs),rhsMax =  -5.24709056347983E+01  2.09704770504269E+00
(PID.TID 0000.0001)  ploadbar=  1.01026740957541E+05
 cg2d: Sum(rhs),rhsMax =  -5.24022001388599E+01  2.09975599375224E+00
(PID.TID 0000.0001)  ploadbar=  1.01028171995960E+05
 cg2d: Sum(rhs),rhsMax =  -5.23572426830694E+01  2.10151859609309E+00
(PID.TID 0000.0001)  ploadbar=  1.01029603034379E+05
 cg2d: Sum(rhs),rhsMax =  -5.23245187139522E+01  2.10278983994403E+00
(PID.TID 0000.0001)  ploadbar=  1.01031034072798E+05
 cg2d: Sum(rhs),rhsMax =  -5.23023181527737E+01  2.10362755444066E+00
(PID.TID 0000.0001)  ploadbar=  1.01032465111217E+05
 cg2d: Sum(rhs),rhsMax =  -5.22939352412955E+01  2.10389051132068E+00
(PID.TID 0000.0001)  ploadbar=  1.01033896149636E+05
 cg2d: Sum(rhs),rhsMax =  -5.23029087042327E+01  2.10342959602649E+00
(PID.TID 0000.0001)  ploadbar=  1.01035327188055E+05
 cg2d: Sum(rhs),rhsMax =  -5.23408498224375E+01  2.10181632236495E+00
(PID.TID 0000.0001)  ploadbar=  1.01036201908655E+05
 cg2d: Sum(rhs),rhsMax =  -5.24056368701819E+01  2.09913711985263E+00
(PID.TID 0000.0001)  ploadbar=  1.01037076629255E+05
 cg2d: Sum(rhs),rhsMax =  -5.24879765265029E+01  2.09576494799708E+00
(PID.TID 0000.0001)  ploadbar=  1.01037951349855E+05
 cg2d: Sum(rhs),rhsMax =  -5.25831392087914E+01  2.09188639803970E+00
(PID.TID 0000.0001)  ploadbar=  1.01038826070455E+05
 cg2d: Sum(rhs),rhsMax =  -5.26870128968421E+01  2.08767073315384E+00
(PID.TID 0000.0001)  ploadbar=  1.01039700791055E+05
 cg2d: Sum(rhs),rhsMax =  -5.27985839312690E+01  2.08315401602085E+00
(PID.TID 0000.0001)  ploadbar=  1.01040575511655E+05
 cg2d: Sum(rhs),rhsMax =  -5.29066622112073E+01  2.07882226353385E+00
(PID.TID 0000.0001)  ploadbar=  1.01041320139312E+05
 cg2d: Sum(rhs),rhsMax =  -5.30300336364129E+01  2.07393142415595E+00
(PID.TID 0000.0001)  ploadbar=  1.01042064766970E+05
 cg2d: Sum(rhs),rhsMax =  -5.31697307808842E+01  2.06844390869183E+00
(PID.TID 0000.0001)  ploadbar=  1.01042809394628E+05
 cg2d: Sum(rhs),rhsMax =  -5.33247884661018E+01  2.06240813892739E+00
(PID.TID 0000.0001)  ploadbar=  1.01043554022286E+05
 cg2d: Sum(rhs),rhsMax =  -5.34938985527016E+01  2.05588115039116E+00
(PID.TID 0000.0001)  ploadbar=  1.01044298649944E+05
 cg2d: Sum(rhs),rhsMax =  -5.36806073488622E+01  2.04873542088018E+00
(PID.TID 0000.0001)  ploadbar=  1.01045043277601E+05
 cg2d: Sum(rhs),rhsMax =  -5.38705725369255E+01  2.04154587530802E+00
(PID.TID 0000.0001)  ploadbar=  1.01045631316328E+05
 cg2d: Sum(rhs),rhsMax =  -5.40755475818679E+01  2.03386988689529E+00
(PID.TID 0000.0001)  ploadbar=  1.01046219355054E+05
 cg2d: Sum(rhs),rhsMax =  -5.42903677090577E+01  2.02590806369863E+00
(PID.TID 0000.0001)  ploadbar=  1.01046807393781E+05
 cg2d: Sum(rhs),rhsMax =  -5.45130410038386E+01  2.01773787414451E+00
(PID.TID 0000.0001)  ploadbar=  1.01047395432507E+05
 cg2d: Sum(rhs),rhsMax =  -5.47426046707042E+01  2.00939657694615E+00
(PID.TID 0000.0001)  ploadbar=  1.01047983471233E+05
 cg2d: Sum(rhs),rhsMax =  -5.49780161798232E+01  2.00092564132627E+00
(PID.TID 0000.0001)  ploadbar=  1.01048571509960E+05
 cg2d: Sum(rhs),rhsMax =  -5.52061371734143E+01  1.99278407603039E+00
(PID.TID 0000.0001)  ploadbar=  1.01049954984982E+05
 cg2d: Sum(rhs),rhsMax =  -5.54390811899874E+01  1.98452300523352E+00
(PID.TID 0000.0001)  ploadbar=  1.01051338460005E+05
 cg2d: Sum(rhs),rhsMax =  -5.56733954034567E+01  1.97626272622632E+00
(PID.TID 0000.0001)  ploadbar=  1.01052721935027E+05
 cg2d: Sum(rhs),rhsMax =  -5.59061369964703E+01  1.96810261865539E+00
(PID.TID 0000.0001)  ploadbar=  1.01054105410049E+05
 cg2d: Sum(rhs),rhsMax =  -5.61348702283274E+01  1.96012218503109E+00
(PID.TID 0000.0001)  ploadbar=  1.01055488885072E+05
 cg2d: Sum(rhs),rhsMax =  -5.63567445450795E+01  1.95241535207322E+00
(PID.TID 0000.0001)  ploadbar=  1.01056872360094E+05
 cg2d: Sum(rhs),rhsMax =  -5.65814699945545E+01  1.94468485138016E+00
(PID.TID 0000.0001)  ploadbar=  1.01056330413372E+05
 cg2d: Sum(rhs),rhsMax =  -5.67928219671093E+01  1.93748140883958E+00
(PID.TID 0000.0001)  ploadbar=  1.01055788466649E+05
 cg2d: Sum(rhs),rhsMax =  -5.69903979915400E+01  1.93080460796535E+00
(PID.TID 0000.0001)  ploadbar=  1.01055246519926E+05
 cg2d: Sum(rhs),rhsMax =  -5.71751741033331E+01  1.92460795660710E+00
(PID.TID 0000.0001)  ploadbar=  1.01054704573203E+05
 cg2d: Sum(rhs),rhsMax =  -5.73444538002096E+01  1.91896661613760E+00
(PID.TID 0000.0001)  ploadbar=  1.01054162626481E+05
 cg2d: Sum(rhs),rhsMax =  -5.74974251045965E+01  1.91389185446155E+00
(PID.TID 0000.0001)  ploadbar=  1.01053620679758E+05
 cg2d: Sum(rhs),rhsMax =  -5.76352123600586E+01  1.90937372642181E+00
(PID.TID 0000.0001)  ploadbar=  1.01052442602887E+05
 cg2d: Sum(rhs),rhsMax =  -5.77615137817875E+01  1.90527877132826E+00
(PID.TID 0000.0001)  ploadbar=  1.01051264526016E+05
 cg2d: Sum(rhs),rhsMax =  -5.78864025653620E+01  1.90126978625147E+00
(PID.TID 0000.0001)  ploadbar=  1.01050086449145E+05
 cg2d: Sum(rhs),rhsMax =  -5.80093737926917E+01  1.89735927219179E+00
(PID.TID 0000.0001)  ploadbar=  1.01048908372274E+05
 cg2d: Sum(rhs),rhsMax =  -5.81319098938875E+01  1.89349106015587E+00
(PID.TID 0000.0001)  ploadbar=  1.01047730295403E+05
 cg2d: Sum(rhs),rhsMax =  -5.82544867183003E+01  1.88964852861856E+00
(PID.TID 0000.0001)  ploadbar=  1.01046552218532E+05
 cg2d: Sum(rhs),rhsMax =  -5.83566038631219E+01  1.88646527655807E+00
(PID.TID 0000.0001)  ploadbar=  1.01045263603393E+05
 cg2d: Sum(rhs),rhsMax =  -5.84523194855880E+01  1.88347773296764E+00
(PID.TID 0000.0001)  ploadbar=  1.01043974988254E+05
 cg2d: Sum(rhs),rhsMax =  -5.85462781194910E+01  1.88053092024384E+00
(PID.TID 0000.0001)  ploadbar=  1.01042686373115E+05
 cg2d: Sum(rhs),rhsMax =  -5.86388918083029E+01  1.87760373310626E+00
(PID.TID 0000.0001)  ploadbar=  1.01041397757976E+05
 cg2d: Sum(rhs),rhsMax =  -5.87311916872174E+01  1.87465867502614E+00
(PID.TID 0000.0001)  ploadbar=  1.01040109142838E+05
 cg2d: Sum(rhs),rhsMax =  -5.88236199087335E+01  1.87167775008385E+00
(PID.TID 0000.0001)  ploadbar=  1.01038820527699E+05
 cg2d: Sum(rhs),rhsMax =  -5.89213380306066E+01  1.86853881979026E+00
(PID.TID 0000.0001)  ploadbar=  1.01038816408192E+05
 cg2d: Sum(rhs),rhsMax =  -5.90271861635036E+01  1.86515078458762E+00
(PID.TID 0000.0001)  ploadbar=  1.01038812288685E+05
 cg2d: Sum(rhs),rhsMax =  -5.91329291712968E+01  1.86177098603204E+00
(PID.TID 0000.0001)  ploadbar=  1.01038808169178E+05
 cg2d: Sum(rhs),rhsMax =  -5.92421163619831E+01  1.85828577430748E+00
(PID.TID 0000.0001)  ploadbar=  1.01038804049671E+05
 cg2d: Sum(rhs),rhsMax =  -5.93575820442881E+01  1.85460625049180E+00
(PID.TID 0000.0001)  ploadbar=  1.01038799930164E+05
 cg2d: Sum(rhs),rhsMax =  -5.94833384854032E+01  1.85060517437820E+00
(PID.TID 0000.0001)  ploadbar=  1.01038795810657E+05
 cg2d: Sum(rhs),rhsMax =  -5.96065040147268E+01  1.84667555681841E+00
(PID.TID 0000.0001)  ploadbar=  1.01038351506348E+05
 cg2d: Sum(rhs),rhsMax =  -5.97368084736566E+01  1.84251458516301E+00
(PID.TID 0000.0001)  ploadbar=  1.01037907202038E+05
 cg2d: Sum(rhs),rhsMax =  -5.98925941118393E+01  1.83755939863308E+00
(PID.TID 0000.0001)  ploadbar=  1.01037462897729E+05
 cg2d: Sum(rhs),rhsMax =  -6.00851559921886E+01  1.83147151923753E+00
(PID.TID 0000.0001)  ploadbar=  1.01037018593419E+05
 cg2d: Sum(rhs),rhsMax =  -6.03245287181016E+01  1.82396690802421E+00
(PID.TID 0000.0001)  ploadbar=  1.01036574289110E+05
 cg2d: Sum(rhs),rhsMax =  -6.06088181164866E+01  1.81513399426371E+00
(PID.TID 0000.0001)  ploadbar=  1.01036129984801E+05
 cg2d: Sum(rhs),rhsMax =  -6.09297037451634E+01  1.80533712893847E+00
(PID.TID 0000.0001)  ploadbar=  1.01035254698044E+05
 cg2d: Sum(rhs),rhsMax =  -6.12307643985897E+01  1.79626465356717E+00
(PID.TID 0000.0001)  ploadbar=  1.01034379411288E+05
 cg2d: Sum(rhs),rhsMax =  -6.15410274424072E+01  1.78705090994164E+00
(PID.TID 0000.0001)  ploadbar=  1.01033504124531E+05
 cg2d: Sum(rhs),rhsMax =  -6.17730625105703E+01  1.78021962583636E+00
(PID.TID 0000.0001)  ploadbar=  1.01032628837775E+05
 cg2d: Sum(rhs),rhsMax =  -6.18985113259239E+01  1.77653425968595E+00
(PID.TID 0000.0001)  ploadbar=  1.01031753551018E+05
 cg2d: Sum(rhs),rhsMax =  -6.19690144857706E+01  1.77447881229009E+00
(PID.TID 0000.0001)  ploadbar=  1.01030878264262E+05
 cg2d: Sum(rhs),rhsMax =  -6.19790434933821E+01  1.77415977111711E+00
(PID.TID 0000.0001)  ploadbar=  1.01029722958956E+05
 cg2d: Sum(rhs),rhsMax =  -6.18607731039475E+01  1.77752043342743E+00
(PID.TID 0000.0001)  ploadbar=  1.01028567653649E+05
 cg2d: Sum(rhs),rhsMax =  -6.15535775004984E+01  1.78635833310125E+00
(PID.TID 0000.0001)  ploadbar=  1.01027412348343E+05
 cg2d: Sum(rhs),rhsMax =  -6.11852263713370E+01  1.79707326201014E+00
(PID.TID 0000.0001)  ploadbar=  1.01026257043037E+05
 cg2d: Sum(rhs),rhsMax =  -6.09400577997946E+01  1.80425302995347E+00
(PID.TID 0000.0001)  ploadbar=  1.01025101737730E+05
 cg2d: Sum(rhs),rhsMax =  -6.07344438003233E+01  1.81029747472171E+00
(PID.TID 0000.0001)  ploadbar=  1.01023946432424E+05
 cg2d: Sum(rhs),rhsMax =  -6.05409554668754E+01  1.81600976336039E+00
(PID.TID 0000.0001)  ploadbar=  1.01024357943090E+05
 cg2d: Sum(rhs),rhsMax =  -6.03637704923920E+01  1.82125462440621E+00
(PID.TID 0000.0001)  ploadbar=  1.01024769453755E+05
 cg2d: Sum(rhs),rhsMax =  -6.01921642250505E+01  1.82634796945861E+00
(PID.TID 0000.0001)  ploadbar=  1.01025180964421E+05
 cg2d: Sum(rhs),rhsMax =  -6.00182365425093E+01  1.83152199707958E+00
(PID.TID 0000.0001)  ploadbar=  1.01025592475086E+05
 cg2d: Sum(rhs),rhsMax =  -5.98379883928804E+01  1.83689680628212E+00
(PID.TID 0000.0001)  ploadbar=  1.01026003985752E+05
 cg2d: Sum(rhs),rhsMax =  -5.96493578820554E+01  1.84253760804351E+00
(PID.TID 0000.0001)  ploadbar=  1.01026415496417E+05
 cg2d: Sum(rhs),rhsMax =  -5.94403710492178E+01  1.84882801243443E+00
(PID.TID 0000.0001)  ploadbar=  1.01027313136430E+05
 cg2d: Sum(rhs),rhsMax =  -5.92325339158824E+01  1.85510310611777E+00
(PID.TID 0000.0001)  ploadbar=  1.01028210776443E+05
 cg2d: Sum(rhs),rhsMax =  -5.90339284480972E+01  1.86110195591185E+00
(PID.TID 0000.0001)  ploadbar=  1.01029108416456E+05
 cg2d: Sum(rhs),rhsMax =  -5.88510525873189E+01  1.86661187200615E+00
(PID.TID 0000.0001)  ploadbar=  1.01030006056469E+05
 cg2d: Sum(rhs),rhsMax =  -5.86869682979037E+01  1.87151647737840E+00
(PID.TID 0000.0001)  ploadbar=  1.01030903696482E+05
 cg2d: Sum(rhs),rhsMax =  -5.85421071176009E+01  1.87578621691562E+00
(PID.TID 0000.0001)  ploadbar=  1.01031801336495E+05
 cg2d: Sum(rhs),rhsMax =  -5.84193895011715E+01  1.87938528778687E+00
(PID.TID 0000.0001)  ploadbar=  1.01033433228360E+05
 cg2d: Sum(rhs),rhsMax =  -5.83171143107258E+01  1.88235687977779E+00
(PID.TID 0000.0001)  ploadbar=  1.01035065120224E+05
 cg2d: Sum(rhs),rhsMax =  -5.82288098737053E+01  1.88490250047352E+00
(PID.TID 0000.0001)  ploadbar=  1.01036697012089E+05
 cg2d: Sum(rhs),rhsMax =  -5.81522456455804E+01  1.88708998717682E+00
(PID.TID 0000.0001)  ploadbar=  1.01038328903954E+05
 cg2d: Sum(rhs),rhsMax =  -5.80872987258455E+01  1.88891463595105E+00
(PID.TID 0000.0001)  ploadbar=  1.01039960795819E+05
 cg2d: Sum(rhs),rhsMax =  -5.80326529988428E+01  1.89041301930361E+00
(PID.TID 0000.0001)  ploadbar=  1.01041592687684E+05
 cg2d: Sum(rhs),rhsMax =  -5.79943719221136E+01  1.89138543487608E+00
(PID.TID 0000.0001)  ploadbar=  1.01042804702434E+05
 cg2d: Sum(rhs),rhsMax =  -5.79647033409060E+01  1.89207979616916E+00
(PID.TID 0000.0001)  ploadbar=  1.01044016717184E+05
 cg2d: Sum(rhs),rhsMax =  -5.79433253239741E+01  1.89250328862130E+00
(PID.TID 0000.0001)  ploadbar=  1.01045228731935E+05
 cg2d: Sum(rhs),rhsMax =  -5.79295234696086E+01  1.89267320946227E+00
(PID.TID 0000.0001)  ploadbar=  1.01046440746685E+05
 cg2d: Sum(rhs),rhsMax =  -5.79218734426445E+01  1.89262986550395E+00
(PID.TID 0000.0001)  ploadbar=  1.01047652761435E+05
 cg2d: Sum(rhs),rhsMax =  -5.79197574517930E+01  1.89238933936342E+00
(PID.TID 0000.0001)  ploadbar=  1.01048864776186E+05
 cg2d: Sum(rhs),rhsMax =  -5.79282854329432E+01  1.89183091100997E+00
(PID.TID 0000.0001)  ploadbar=  1.01050299676914E+05
 cg2d: Sum(rhs),rhsMax =  -5.79413254953708E+01  1.89114844236494E+00
(PID.TID 0000.0001)  ploadbar=  1.01051734577643E+05
 cg2d: Sum(rhs),rhsMax =  -5.79567028495197E+01  1.89041202484310E+00
(PID.TID 0000.0001)  ploadbar=  1.01053169478371E+05
 cg2d: Sum(rhs),rhsMax =  -5.79760579321539E+01  1.88956348740998E+00
(PID.TID 0000.0001)  ploadbar=  1.01054604379100E+05
 cg2d: Sum(rhs),rhsMax =  -5.79994217841522E+01  1.88859490598219E+00
(PID.TID 0000.0001)  ploadbar=  1.01056039279828E+05
 cg2d: Sum(rhs),rhsMax =  -5.80272200853762E+01  1.88748729192243E+00
(PID.TID 0000.0001)  ploadbar=  1.01057474180557E+05
 cg2d: Sum(rhs),rhsMax =  -5.80499600803404E+01  1.88653506425191E+00
(PID.TID 0000.0001)  ploadbar=  1.01058147640260E+05
 cg2d: Sum(rhs),rhsMax =  -5.80719282193341E+01  1.88559371914448E+00
(PID.TID 0000.0001)  ploadbar=  1.01058821099964E+05
 cg2d: Sum(rhs),rhsMax =  -5.80932941340717E+01  1.88465205056583E+00
(PID.TID 0000.0001)  ploadbar=  1.01059494559668E+05
 cg2d: Sum(rhs),rhsMax =  -5.81150030958039E+01  1.88367266489763E+00
(PID.TID 0000.0001)  ploadbar=  1.01060168019371E+05
 cg2d: Sum(rhs),rhsMax =  -5.81359262684701E+01  1.88268421848474E+00
(PID.TID 0000.0001)  ploadbar=  1.01060841479075E+05
 cg2d: Sum(rhs),rhsMax =  -5.81553929932205E+01  1.88170376607262E+00
(PID.TID 0000.0001)  ploadbar=  1.01061514938778E+05
 cg2d: Sum(rhs),rhsMax =  -5.81772125728831E+01  1.88067082373771E+00
(PID.TID 0000.0001)  ploadbar=  1.01062298042271E+05
 cg2d: Sum(rhs),rhsMax =  -5.81970316206793E+01  1.87972163419421E+00
(PID.TID 0000.0001)  ploadbar=  1.01063081145763E+05
 cg2d: Sum(rhs),rhsMax =  -5.82116199534285E+01  1.87895526468384E+00
(PID.TID 0000.0001)  ploadbar=  1.01063864249255E+05
 cg2d: Sum(rhs),rhsMax =  -5.82226878374534E+01  1.87830873916207E+00
(PID.TID 0000.0001)  ploadbar=  1.01064647352748E+05
 cg2d: Sum(rhs),rhsMax =  -5.82303631255011E+01  1.87777125314348E+00
(PID.TID 0000.0001)  ploadbar=  1.01065430456240E+05
 cg2d: Sum(rhs),rhsMax =  -5.82338699824628E+01  1.87736313747360E+00
(PID.TID 0000.0001)  ploadbar=  1.01066213559732E+05
 cg2d: Sum(rhs),rhsMax =  -5.82403063510938E+01  1.87685627949883E+00
(PID.TID 0000.0001)  ploadbar=  1.01067074828687E+05
 cg2d: Sum(rhs),rhsMax =  -5.82430198060197E+01  1.87646199881863E+00
(PID.TID 0000.0001)  ploadbar=  1.01067936097642E+05
 cg2d: Sum(rhs),rhsMax =  -5.82485546588680E+01  1.87596472053089E+00
(PID.TID 0000.0001)  ploadbar=  1.01068797366597E+05
 cg2d: Sum(rhs),rhsMax =  -5.82580266025608E+01  1.87532292782138E+00
(PID.TID 0000.0001)  ploadbar=  1.01069658635551E+05
 cg2d: Sum(rhs),rhsMax =  -5.82710539381728E+01  1.87454190792355E+00
(PID.TID 0000.0001)  ploadbar=  1.01070519904506E+05
 cg2d: Sum(rhs),rhsMax =  -5.82884535200870E+01  1.87359262254421E+00
(PID.TID 0000.0001)  ploadbar=  1.01071381173461E+05
 cg2d: Sum(rhs),rhsMax =  -5.83008992214385E+01  1.87280872632942E+00
(PID.TID 0000.0001)  ploadbar=  1.01071611254124E+05
 cg2d: Sum(rhs),rhsMax =  -5.83209658830896E+01  1.87178233808960E+00
(PID.TID 0000.0001)  ploadbar=  1.01071841334787E+05
 cg2d: Sum(rhs),rhsMax =  -5.83521753819753E+01  1.87039815699321E+00
(PID.TID 0000.0001)  ploadbar=  1.01072071415450E+05
 cg2d: Sum(rhs),rhsMax =  -5.83934249919604E+01  1.86868643053147E+00
(PID.TID 0000.0001)  ploadbar=  1.01072301496113E+05
 cg2d: Sum(rhs),rhsMax =  -5.84472032558008E+01  1.86656224249553E+00
(PID.TID 0000.0001)  ploadbar=  1.01072531576776E+05
 cg2d: Sum(rhs),rhsMax =  -5.85141293387745E+01  1.86400061619714E+00
(PID.TID 0000.0001)  ploadbar=  1.01072761657439E+05
 cg2d: Sum(rhs),rhsMax =  -5.85914708454558E+01  1.86113002652618E+00
(PID.TID 0000.0001)  ploadbar=  1.01074111242271E+05
 cg2d: Sum(rhs),rhsMax =  -5.86829307934175E+01  1.85783175067680E+00
(PID.TID 0000.0001)  ploadbar=  1.01075460827104E+05
 cg2d: Sum(rhs),rhsMax =  -5.87924843928203E+01  1.85397901672535E+00
(PID.TID 0000.0001)  ploadbar=  1.01076810411936E+05
 cg2d: Sum(rhs),rhsMax =  -5.89164190055876E+01  1.84968756434202E+00
(PID.TID 0000.0001)  ploadbar=  1.01078159996768E+05
 cg2d: Sum(rhs),rhsMax =  -5.90545411177008E+01  1.84496579320757E+00
(PID.TID 0000.0001)  ploadbar=  1.01079509581600E+05
 cg2d: Sum(rhs),rhsMax =  -5.92066179681335E+01  1.83982424890040E+00
(PID.TID 0000.0001)  ploadbar=  1.01080859166432E+05
 cg2d: Sum(rhs),rhsMax =  -5.93738063547972E+01  1.83425885465403E+00
(PID.TID 0000.0001)  ploadbar=  1.01082920753139E+05
 cg2d: Sum(rhs),rhsMax =  -5.95590190307180E+01  1.82818700680219E+00
(PID.TID 0000.0001)  ploadbar=  1.01084982339845E+05
 cg2d: Sum(rhs),rhsMax =  -5.97660809479486E+01  1.82149994872588E+00
(PID.TID 0000.0001)  ploadbar=  1.01087043926552E+05
 cg2d: Sum(rhs),rhsMax =  -6.00013718445110E+01  1.81401434503398E+00
(PID.TID 0000.0001)  ploadbar=  1.01089105513259E+05
 cg2d: Sum(rhs),rhsMax =  -6.02710291919204E+01  1.80556330441002E+00
(PID.TID 0000.0001)  ploadbar=  1.01091167099965E+05
 cg2d: Sum(rhs),rhsMax =  -6.05716435631078E+01  1.79627343789883E+00
(PID.TID 0000.0001)  ploadbar=  1.01093228686672E+05
 cg2d: Sum(rhs),rhsMax =  -6.08985880259686E+01  1.78631062339504E+00
(PID.TID 0000.0001)  ploadbar=  1.01094313657841E+05
 cg2d: Sum(rhs),rhsMax =  -6.12467366541674E+01  1.77584507598760E+00
(PID.TID 0000.0001)  ploadbar=  1.01095398629011E+05
 cg2d: Sum(rhs),rhsMax =  -6.16057784431322E+01  1.76518693016294E+00
(PID.TID 0000.0001)  ploadbar=  1.01096483600180E+05
 cg2d: Sum(rhs),rhsMax =  -6.19677706881688E+01  1.75456179129472E+00
(PID.TID 0000.0001)  ploadbar=  1.01097568571349E+05
 cg2d: Sum(rhs),rhsMax =  -6.23258993515645E+01  1.74415637348470E+00
(PID.TID 0000.0001)  ploadbar=  1.01098653542519E+05
 cg2d: Sum(rhs),rhsMax =  -6.26010120184431E+01  1.73615590039267E+00
(PID.TID 0000.0001)  ploadbar=  1.01099738513688E+05
 cg2d: Sum(rhs),rhsMax =  -6.28700541828649E+01  1.72838319603091E+00
(PID.TID 0000.0001)  ploadbar=  1.01099399417284E+05
 cg2d: Sum(rhs),rhsMax =  -6.31336916682874E+01  1.72081424324689E+00
(PID.TID 0000.0001)  ploadbar=  1.01099060320881E+05
 cg2d: Sum(rhs),rhsMax =  -6.33850561427782E+01  1.71362599775922E+00
(PID.TID 0000.0001)  ploadbar=  1.01098721224477E+05
 cg2d: Sum(rhs),rhsMax =  -6.36276506142051E+01  1.70670992310031E+00
(PID.TID 0000.0001)  ploadbar=  1.01098382128073E+05
 cg2d: Sum(rhs),rhsMax =  -6.38635693247951E+01  1.69999659954015E+00
(PID.TID 0000.0001)  ploadbar=  1.01098043031670E+05
 cg2d: Sum(rhs),rhsMax =  -6.40935719505155E+01  1.69345796716293E+00
(PID.TID 0000.0001)  ploadbar=  1.01097703935266E+05
 cg2d: Sum(rhs),rhsMax =  -6.43178752560765E+01  1.68713817927885E+00
(PID.TID 0000.0001)  ploadbar=  1.01097084696041E+05
 cg2d: Sum(rhs),rhsMax =  -6.45413975115086E+01  1.68090204023617E+00
(PID.TID 0000.0001)  ploadbar=  1.01096465456815E+05
 cg2d: Sum(rhs),rhsMax =  -6.36923181900496E+01  1.70292859913067E+00
(PID.TID 0000.0001)  ploadbar=  1.01095846217589E+05
 cg2d: Sum(rhs),rhsMax =  -6.23976058191006E+01  1.73788779568505E+00
(PID.TID 0000.0001)  ploadbar=  1.01095226978363E+05
 cg2d: Sum(rhs),rhsMax =  -6.11955358741300E+01  1.77165446649951E+00
(PID.TID 0000.0001)  ploadbar=  1.01094607739137E+05
 cg2d: Sum(rhs),rhsMax =  -6.00783711783155E+01  1.80423205500468E+00
(PID.TID 0000.0001)  ploadbar=  1.01093988499912E+05
 cg2d: Sum(rhs),rhsMax =  -5.90308177171230E+01  1.83590816452051E+00
(PID.TID 0000.0001)  ploadbar=  1.01092887726821E+05
 cg2d: Sum(rhs),rhsMax =  -5.80520716418853E+01  1.86654652801462E+00
(PID.TID 0000.0001)  ploadbar=  1.01091786953730E+05
 cg2d: Sum(rhs),rhsMax =  -5.71289813925639E+01  1.89641510591771E+00
(PID.TID 0000.0001)  ploadbar=  1.01090686180639E+05
 cg2d: Sum(rhs),rhsMax =  -5.62593117852844E+01  1.92545926157624E+00
(PID.TID 0000.0001)  ploadbar=  1.01089585407548E+05
 cg2d: Sum(rhs),rhsMax =  -5.54393759420770E+01  1.95368092721444E+00
(PID.TID 0000.0001)  ploadbar=  1.01088484634457E+05
 cg2d: Sum(rhs),rhsMax =  -5.46690969430984E+01  1.98096346635593E+00
(PID.TID 0000.0001)  ploadbar=  1.01087383861366E+05
 cg2d: Sum(rhs),rhsMax =  -5.39548641317572E+01  2.00693928464594E+00
(PID.TID 0000.0001)  ploadbar=  1.01085991733769E+05
 cg2d: Sum(rhs),rhsMax =  -5.33297536612807E+01  2.03021003230702E+00
(PID.TID 0000.0001)  ploadbar=  1.01084599606173E+05
 cg2d: Sum(rhs),rhsMax =  -5.28191664064395E+01  2.04957123692079E+00
(PID.TID 0000.0001)  ploadbar=  1.01083207478577E+05
 cg2d: Sum(rhs),rhsMax =  -5.24412490057230E+01  2.06406493676982E+00
(PID.TID 0000.0001)  ploadbar=  1.01081815350980E+05
 cg2d: Sum(rhs),rhsMax =  -5.21894762310483E+01  2.07372930071213E+00
(PID.TID 0000.0001)  ploadbar=  1.01080423223384E+05
 cg2d: Sum(rhs),rhsMax =  -5.20567623709087E+01  2.07870321148216E+00
(PID.TID 0000.0001)  ploadbar=  1.01079031095787E+05
 cg2d: Sum(rhs),rhsMax =  -5.20302600774990E+01  2.07950157432823E+00
(PID.TID 0000.0001)  ploadbar=  1.01078273852598E+05
 cg2d: Sum(rhs),rhsMax =  -5.20611873605648E+01  2.07805375259094E+00
(PID.TID 0000.0001)  ploadbar=  1.01077516609409E+05
 cg2d: Sum(rhs),rhsMax =  -5.21223852811760E+01  2.07544104571725E+00
(PID.TID 0000.0001)  ploadbar=  1.01076759366220E+05
 cg2d: Sum(rhs),rhsMax =  -5.22166970783015E+01  2.07155137638605E+00
(PID.TID 0000.0001)  ploadbar=  1.01076002123031E+05
 cg2d: Sum(rhs),rhsMax =  -5.23409138504939E+01  2.06652062551506E+00
(PID.TID 0000.0001)  ploadbar=  1.01075244879842E+05
 cg2d: Sum(rhs),rhsMax =  -5.24963464385286E+01  2.06030837864255E+00
(PID.TID 0000.0001)  ploadbar=  1.01074487636653E+05
 cg2d: Sum(rhs),rhsMax =  -5.26833792633306E+01  2.05290029907096E+00
(PID.TID 0000.0001)  ploadbar=  1.01075159813561E+05
 cg2d: Sum(rhs),rhsMax =  -5.28849401599418E+01  2.04498054387688E+00
(PID.TID 0000.0001)  ploadbar=  1.01075831990468E+05
 cg2d: Sum(rhs),rhsMax =  -5.30864938166886E+01  2.03711485733130E+00
(PID.TID 0000.0001)  ploadbar=  1.01076504167376E+05
 cg2d: Sum(rhs),rhsMax =  -5.32763196714704E+01  2.02974522676150E+00
(PID.TID 0000.0001)  ploadbar=  1.01077176344284E+05
 cg2d: Sum(rhs),rhsMax =  -5.34490442267074E+01  2.02305865740100E+00
(PID.TID 0000.0001)  ploadbar=  1.01077848521192E+05
 cg2d: Sum(rhs),rhsMax =  -5.36013294976924E+01  2.01716130721494E+00
(PID.TID 0000.0001)  ploadbar=  1.01078520698099E+05
 cg2d: Sum(rhs),rhsMax =  -5.37493409115943E+01  2.01146875931047E+00
(PID.TID 0000.0001)  ploadbar=  1.01079360005564E+05
 cg2d: Sum(rhs),rhsMax =  -5.38828025040089E+01  2.00635704059417E+00
(PID.TID 0000.0001)  ploadbar=  1.01080199313028E+05
 cg2d: Sum(rhs),rhsMax =  -5.39988380816152E+01  2.00191844203988E+00
(PID.TID 0000.0001)  ploadbar=  1.01081038620492E+05
 cg2d: Sum(rhs),rhsMax =  -5.41026989565187E+01  1.99794419465145E+00
(PID.TID 0000.0001)  ploadbar=  1.01081877927956E+05
 cg2d: Sum(rhs),rhsMax =  -5.41946068417054E+01  1.99441440448891E+00
(PID.TID 0000.0001)  ploadbar=  1.01082717235421E+05
 cg2d: Sum(rhs),rhsMax =  -5.42822941169527E+01  1.99103632560313E+00
(PID.TID 0000.0001)  ploadbar=  1.01083556542885E+05
 cg2d: Sum(rhs),rhsMax =  -5.43810161894788E+01  1.98724474145520E+00
(PID.TID 0000.0001)  ploadbar=  1.01084300986885E+05
 cg2d: Sum(rhs),rhsMax =  -5.45106739719664E+01  1.98231749702884E+00
(PID.TID 0000.0001)  ploadbar=  1.01085045430886E+05
 cg2d: Sum(rhs),rhsMax =  -5.46859487687395E+01  1.97573481000908E+00
(PID.TID 0000.0001)  ploadbar=  1.01085789874886E+05
 cg2d: Sum(rhs),rhsMax =  -5.49106987415302E+01  1.96738718826106E+00
(PID.TID 0000.0001)  ploadbar=  1.01086534318887E+05
 cg2d: Sum(rhs),rhsMax =  -5.51829039804860E+01  1.95738568791019E+00
(PID.TID 0000.0001)  ploadbar=  1.01087278762887E+05
 cg2d: Sum(rhs),rhsMax =  -5.55055651733964E+01  1.94567150014198E+00
(PID.TID 0000.0001)  ploadbar=  1.01088023206888E+05
 cg2d: Sum(rhs),rhsMax =  -5.58773077515305E+01  1.93238387258195E+00
(PID.TID 0000.0001)  ploadbar=  1.01087853708233E+05
 cg2d: Sum(rhs),rhsMax =  -5.62813814333112E+01  1.91815420187753E+00
(PID.TID 0000.0001)  ploadbar=  1.01087684209579E+05
 cg2d: Sum(rhs),rhsMax =  -5.67175674568863E+01  1.90302923047818E+00
(PID.TID 0000.0001)  ploadbar=  1.01087514710925E+05
 cg2d: Sum(rhs),rhsMax =  -5.71886659432162E+01  1.88695542452308E+00
(PID.TID 0000.0001)  ploadbar=  1.01087345212271E+05
 cg2d: Sum(rhs),rhsMax =  -5.77028191550239E+01  1.86971711724965E+00
(PID.TID 0000.0001)  ploadbar=  1.01087175713616E+05
 cg2d: Sum(rhs),rhsMax =  -5.82710693281663E+01  1.85102908895173E+00
(PID.TID 0000.0001)  ploadbar=  1.01087006214962E+05
 cg2d: Sum(rhs),rhsMax =  -5.88933817514962E+01  1.83099027417394E+00
(PID.TID 0000.0001)  ploadbar=  1.01086807730523E+05
 cg2d: Sum(rhs),rhsMax =  -5.95914905799852E+01  1.80903569985973E+00
(PID.TID 0000.0001)  ploadbar=  1.01086609246083E+05
 cg2d: Sum(rhs),rhsMax =  -6.03848316477927E+01  1.78473633825612E+00
(PID.TID 0000.0001)  ploadbar=  1.01086410761644E+05
 cg2d: Sum(rhs),rhsMax =  -6.12613086373594E+01  1.75863851178484E+00
(PID.TID 0000.0001)  ploadbar=  1.01086212277205E+05
 cg2d: Sum(rhs),rhsMax =  -6.22000707305654E+01  1.73149640417744E+00
(PID.TID 0000.0001)  ploadbar=  1.01086013792765E+05
 cg2d: Sum(rhs),rhsMax =  -6.31666662244547E+01  1.70436024421267E+00
(PID.TID 0000.0001)  ploadbar=  1.01085815308326E+05
 cg2d: Sum(rhs),rhsMax =  -6.40893425393483E+01  1.67922766531794E+00
(PID.TID 0000.0001)  ploadbar=  1.01085495996548E+05
 cg2d: Sum(rhs),rhsMax =  -6.49717617373397E+01  1.65586266996195E+00
(PID.TID 0000.0001)  ploadbar=  1.01085176684769E+05
 cg2d: Sum(rhs),rhsMax =  -6.58128299010168E+01  1.63417584213045E+00
(PID.TID 0000.0001)  ploadbar=  1.01084857372990E+05
 cg2d: Sum(rhs),rhsMax =  -6.66254748109823E+01  1.61374446593857E+00
(PID.TID 0000.0001)  ploadbar=  1.01084538061212E+05
 cg2d: Sum(rhs),rhsMax =  -6.74027634931985E+01  1.59465640862686E+00
(PID.TID 0000.0001)  ploadbar=  1.01084218749433E+05
 cg2d: Sum(rhs),rhsMax =  -6.74483726431663E+01  1.59310917528044E+00
(PID.TID 0000.0001)  ploadbar=  1.01083899437655E+05
 cg2d: Sum(rhs),rhsMax =  -6.74998621169684E+01  1.59141362668590E+00
(PID.TID 0000.0001)  ploadbar=  1.01083693476190E+05
 cg2d: Sum(rhs),rhsMax =  -6.75453483826085E+01  1.58984635404124E+00
(PID.TID 0000.0001)  ploadbar=  1.01083487514725E+05
 cg2d: Sum(rhs),rhsMax =  -6.75846716049824E+01  1.58840420645652E+00
(PID.TID 0000.0001)  ploadbar=  1.01083281553260E+05
 cg2d: Sum(rhs),rhsMax =  -6.76229638684571E+01  1.58696027702049E+00
(PID.TID 0000.0001)  ploadbar=  1.01083075591795E+05
 cg2d: Sum(rhs),rhsMax =  -6.76630351224931E+01  1.58544404315385E+00
(PID.TID 0000.0001)  ploadbar=  1.01082869630331E+05
 cg2d: Sum(rhs),rhsMax =  -6.77058718820753E+01  1.58382488700828E+00
(PID.TID 0000.0001)  ploadbar=  1.01082663668866E+05
 cg2d: Sum(rhs),rhsMax =  -6.77607625357014E+01  1.58195180262240E+00
(PID.TID 0000.0001)  ploadbar=  1.01082534177789E+05
 cg2d: Sum(rhs),rhsMax =  -6.77701922859496E+01  1.58116814489511E+00
(PID.TID 0000.0001)  ploadbar=  1.01082404686711E+05
 cg2d: Sum(rhs),rhsMax =  -6.77366836494221E+01  1.58140694704382E+00
(PID.TID 0000.0001)  ploadbar=  1.01082275195634E+05
 cg2d: Sum(rhs),rhsMax =  -6.77735228126730E+01  1.58002036525676E+00
(PID.TID 0000.0001)  ploadbar=  1.01082145704557E+05
 cg2d: Sum(rhs),rhsMax =  -6.78720888022165E+01  1.57721089187547E+00
(PID.TID 0000.0001)  ploadbar=  1.01082016213480E+05
 cg2d: Sum(rhs),rhsMax =  -6.80188928382789E+01  1.57329650891936E+00
(PID.TID 0000.0001)  ploadbar=  1.01081886722403E+05
 cg2d: Sum(rhs),rhsMax =  -6.81461264568623E+01  1.56984483707392E+00
(PID.TID 0000.0001)  ploadbar=  1.01083244598754E+05
 cg2d: Sum(rhs),rhsMax =  -6.81875481524468E+01  1.56837178714001E+00
(PID.TID 0000.0001)  ploadbar=  1.01084602475106E+05
 cg2d: Sum(rhs),rhsMax =  -6.81168710292275E+01  1.56946621230361E+00
(PID.TID 0000.0001)  ploadbar=  1.01085960351457E+05
 cg2d: Sum(rhs),rhsMax =  -6.79419519127942E+01  1.57295329636000E+00
(PID.TID 0000.0001)  ploadbar=  1.01087318227809E+05
 cg2d: Sum(rhs),rhsMax =  -6.76981105334810E+01  1.57803703430155E+00
(PID.TID 0000.0001)  ploadbar=  1.01088676104160E+05
 cg2d: Sum(rhs),rhsMax =  -6.74161457824699E+01  1.58402030559960E+00
(PID.TID 0000.0001)  ploadbar=  1.01090033980512E+05
 cg2d: Sum(rhs),rhsMax =  -6.71385001291154E+01  1.59000936149377E+00
(PID.TID 0000.0001)  ploadbar=  1.01091270570684E+05
 cg2d: Sum(rhs),rhsMax =  -6.68348352136296E+01  1.59672149436825E+00
(PID.TID 0000.0001)  ploadbar=  1.01092507160856E+05
 cg2d: Sum(rhs),rhsMax =  -6.65108523067126E+01  1.60403106473032E+00
(PID.TID 0000.0001)  ploadbar=  1.01093743751029E+05
 cg2d: Sum(rhs),rhsMax =  -6.61669698538343E+01  1.61193694368531E+00
(PID.TID 0000.0001)  ploadbar=  1.01094980341201E+05
 cg2d: Sum(rhs),rhsMax =  -6.57999541511353E+01  1.62052994163853E+00
(PID.TID 0000.0001)  ploadbar=  1.01096216931373E+05
 cg2d: Sum(rhs),rhsMax =  -6.54088352067558E+01  1.62984758384699E+00
(PID.TID 0000.0001)  ploadbar=  1.01097453521545E+05
 cg2d: Sum(rhs),rhsMax =  -6.49903900990487E+01  1.63997849711534E+00
(PID.TID 0000.0001)  ploadbar=  1.01097182380303E+05
 cg2d: Sum(rhs),rhsMax =  -6.45754268284969E+01  1.65016171589641E+00
(PID.TID 0000.0001)  ploadbar=  1.01096911239060E+05
 cg2d: Sum(rhs),rhsMax =  -6.41770181678678E+01  1.66005205405547E+00
(PID.TID 0000.0001)  ploadbar=  1.01096640097817E+05
 cg2d: Sum(rhs),rhsMax =  -6.38070494925100E+01  1.66932170691989E+00
(PID.TID 0000.0001)  ploadbar=  1.01096368956574E+05
 cg2d: Sum(rhs),rhsMax =  -6.34735678934782E+01  1.67772843657418E+00
(PID.TID 0000.0001)  ploadbar=  1.01096097815331E+05
 cg2d: Sum(rhs),rhsMax =  -6.31828637663527E+01  1.68506880669824E+00
(PID.TID 0000.0001)  ploadbar=  1.01095826674088E+05
 cg2d: Sum(rhs),rhsMax =  -6.29599562527511E+01  1.69069554756035E+00
(PID.TID 0000.0001)  ploadbar=  1.01093779344615E+05
 cg2d: Sum(rhs),rhsMax =  -6.27914160876452E+01  1.69492627408259E+00
(PID.TID 0000.0001)  ploadbar=  1.01091732015141E+05
 cg2d: Sum(rhs),rhsMax =  -6.26824462662389E+01  1.69759508395687E+00
(PID.TID 0000.0001)  ploadbar=  1.01089684685668E+05
 cg2d: Sum(rhs),rhsMax =  -6.26308255852138E+01  1.69873968581561E+00
(PID.TID 0000.0001)  ploadbar=  1.01087637356194E+05
 cg2d: Sum(rhs),rhsMax =  -6.26339798377677E+01  1.69841447740929E+00
(PID.TID 0000.0001)  ploadbar=  1.01085590026720E+05
 cg2d: Sum(rhs),rhsMax =  -6.26911763842916E+01  1.69663525395382E+00
(PID.TID 0000.0001)  ploadbar=  1.01083542697247E+05
 cg2d: Sum(rhs),rhsMax =  -6.28107016223673E+01  1.69316673579149E+00
(PID.TID 0000.0001)  ploadbar=  1.01082221798952E+05
 cg2d: Sum(rhs),rhsMax =  -6.29811225860343E+01  1.68832961449924E+00
(PID.TID 0000.0001)  ploadbar=  1.01080900900658E+05
 cg2d: Sum(rhs),rhsMax =  -6.31875433499362E+01  1.68253622023779E+00
(PID.TID 0000.0001)  ploadbar=  1.01079580002363E+05
 cg2d: Sum(rhs),rhsMax =  -6.34173728450433E+01  1.67613713863229E+00
(PID.TID 0000.0001)  ploadbar=  1.01078259104068E+05
 cg2d: Sum(rhs),rhsMax =  -6.36584900397981E+01  1.66945441285604E+00
(PID.TID 0000.0001)  ploadbar=  1.01076938205774E+05
 cg2d: Sum(rhs),rhsMax =  -6.39011202766055E+01  1.66274619059678E+00
(PID.TID 0000.0001)  ploadbar=  1.01075617307479E+05
 cg2d: Sum(rhs),rhsMax =  -6.41333076014474E+01  1.65638237803095E+00
(PID.TID 0000.0001)  ploadbar=  1.01074143934982E+05
 cg2d: Sum(rhs),rhsMax =  -6.43670281367901E+01  1.65004287550690E+00
(PID.TID 0000.0001)  ploadbar=  1.01072670562484E+05
 cg2d: Sum(rhs),rhsMax =  -6.46135478767327E+01  1.64343545954052E+00
(PID.TID 0000.0001)  ploadbar=  1.01071197189986E+05
 cg2d: Sum(rhs),rhsMax =  -6.48834824052721E+01  1.63629547372972E+00
(PID.TID 0000.0001)  ploadbar=  1.01069723817489E+05
 cg2d: Sum(rhs),rhsMax =  -6.51839279676468E+01  1.62845424783203E+00
(PID.TID 0000.0001)  ploadbar=  1.01068250444991E+05
 cg2d: Sum(rhs),rhsMax =  -6.55191578934457E+01  1.61982220261237E+00
(PID.TID 0000.0001)  ploadbar=  1.01066777072494E+05
 cg2d: Sum(rhs),rhsMax =  -6.58717212640692E+01  1.61086895017289E+00
(PID.TID 0000.0001)  ploadbar=  1.01065735262939E+05
 cg2d: Sum(rhs),rhsMax =  -6.62695420834485E+01  1.60092641820935E+00
(PID.TID 0000.0001)  ploadbar=  1.01064693453383E+05
 cg2d: Sum(rhs),rhsMax =  -6.66858903661738E+01  1.59066544178224E+00
(PID.TID 0000.0001)  ploadbar=  1.01063651643828E+05
 cg2d: Sum(rhs),rhsMax =  -6.71238867477194E+01  1.58002225181028E+00
(PID.TID 0000.0001)  ploadbar=  1.01062609834273E+05
 cg2d: Sum(rhs),rhsMax =  -6.75837559207889E+01  1.56900593292728E+00
(PID.TID 0000.0001)  ploadbar=  1.01061568024718E+05
 cg2d: Sum(rhs),rhsMax =  -6.80648078861904E+01  1.55764638775422E+00
(PID.TID 0000.0001)  ploadbar=  1.01060526215163E+05
 cg2d: Sum(rhs),rhsMax =  -6.85295061788662E+01  1.54681094335218E+00
(PID.TID 0000.0001)  ploadbar=  1.01058557142878E+05
 cg2d: Sum(rhs),rhsMax =  -6.90656565862309E+01  1.53452527915724E+00
(PID.TID 0000.0001)  ploadbar=  1.01056588070593E+05
 cg2d: Sum(rhs),rhsMax =  -6.96627496455205E+01  1.52108793220304E+00
(PID.TID 0000.0001)  ploadbar=  1.01054618998309E+05
 cg2d: Sum(rhs),rhsMax =  -7.03212650131133E+01  1.50654516832318E+00
(PID.TID 0000.0001)  ploadbar=  1.01052649926024E+05
 cg2d: Sum(rhs),rhsMax =  -7.10219680621679E+01  1.49136218144992E+00
(PID.TID 0000.0001)  ploadbar=  1.01050680853740E+05
 cg2d: Sum(rhs),rhsMax =  -7.17344140079907E+01  1.47620654600510E+00
(PID.TID 0000.0001)  ploadbar=  1.01048711781455E+05
 cg2d: Sum(rhs),rhsMax =  -7.24778789932550E+01  1.46069372271151E+00
(PID.TID 0000.0001)  ploadbar=  1.01046485147899E+05
 cg2d: Sum(rhs),rhsMax =  -7.33413846223474E+01  1.44310055465803E+00
(PID.TID 0000.0001)  ploadbar=  1.01044258514342E+05
 cg2d: Sum(rhs),rhsMax =  -7.43781667709304E+01  1.42256373621734E+00
(PID.TID 0000.0001)  ploadbar=  1.01042031880786E+05
 cg2d: Sum(rhs),rhsMax =  -7.56201719531878E+01  1.39875052528853E+00
(PID.TID 0000.0001)  ploadbar=  1.01039805247230E+05
 cg2d: Sum(rhs),rhsMax =  -7.70035338362538E+01  1.37314458872084E+00
(PID.TID 0000.0001)  ploadbar=  1.01037578613673E+05
 cg2d: Sum(rhs),rhsMax =  -7.83449224333654E+01  1.34912514419414E+00
(PID.TID 0000.0001)  ploadbar=  1.01035351980117E+05
 cg2d: Sum(rhs),rhsMax =  -7.96496683599817E+01  1.32655974909417E+00
(PID.TID 0000.0001)  ploadbar=  1.01034186179004E+05
 cg2d: Sum(rhs),rhsMax =  -8.09836685667511E+01  1.30428226749963E+00
(PID.TID 0000.0001)  ploadbar=  1.01033020377891E+05
 cg2d: Sum(rhs),rhsMax =  -8.20057104293357E+01  1.28763620599586E+00
(PID.TID 0000.0001)  ploadbar=  1.01031854576778E+05
 cg2d: Sum(rhs),rhsMax =  -8.14471188190472E+01  1.29609939917300E+00
(PID.TID 0000.0001)  ploadbar=  1.01030688775665E+05
 cg2d: Sum(rhs),rhsMax =  -8.10067708140331E+01  1.30279726276356E+00
(PID.TID 0000.0001)  ploadbar=  1.01029522974552E+05
 cg2d: Sum(rhs),rhsMax =  -8.08012792755197E+01  1.30578204191282E+00
(PID.TID 0000.0001)  ploadbar=  1.01028357173439E+05
 cg2d: Sum(rhs),rhsMax =  -8.11830922004639E+01  1.29932739535264E+00
(PID.TID 0000.0001)  ploadbar=  1.01027275732798E+05
 cg2d: Sum(rhs),rhsMax =  -8.10840603838793E+01  1.30061010699076E+00
(PID.TID 0000.0001)  ploadbar=  1.01026194292156E+05
 cg2d: Sum(rhs),rhsMax =  -8.06666611075415E+01  1.30703835211650E+00
(PID.TID 0000.0001)  ploadbar=  1.01025112851514E+05
 cg2d: Sum(rhs),rhsMax =  -8.01607826969410E+01  1.31498481586495E+00
(PID.TID 0000.0001)  ploadbar=  1.01024031410873E+05
 cg2d: Sum(rhs),rhsMax =  -7.95742794226551E+01  1.32437261751670E+00
(PID.TID 0000.0001)  ploadbar=  1.01022949970231E+05
 cg2d: Sum(rhs),rhsMax =  -7.89618552196855E+01  1.33433542161650E+00
(PID.TID 0000.0001)  ploadbar=  1.01021868529590E+05
 cg2d: Sum(rhs),rhsMax =  -7.85142690191685E+01  1.34164144132701E+00
(PID.TID 0000.0001)  ploadbar=  1.01019493177638E+05
 cg2d: Sum(rhs),rhsMax =  -7.81094486637788E+01  1.34830002599381E+00
(PID.TID 0000.0001)  ploadbar=  1.01017117825685E+05
 cg2d: Sum(rhs),rhsMax =  -7.77736547055723E+01  1.35382853637048E+00
(PID.TID 0000.0001)  ploadbar=  1.01014742473733E+05
 cg2d: Sum(rhs),rhsMax =  -7.74932147655177E+01  1.35843136986014E+00
(PID.TID 0000.0001)  ploadbar=  1.01012367121780E+05
 cg2d: Sum(rhs),rhsMax =  -7.72636160949544E+01  1.36216357617983E+00
(PID.TID 0000.0001)  ploadbar=  1.01009991769828E+05
 cg2d: Sum(rhs),rhsMax =  -7.70826368874992E+01  1.36504620444172E+00
(PID.TID 0000.0001)  ploadbar=  1.01007616417876E+05
 cg2d: Sum(rhs),rhsMax =  -7.69834088862248E+01  1.36645563472452E+00
(PID.TID 0000.0001)  ploadbar=  1.01006686297017E+05
 cg2d: Sum(rhs),rhsMax =  -7.68527561431353E+01  1.36839367394878E+00
(PID.TID 0000.0001)  ploadbar=  1.01005756176158E+05
 cg2d: Sum(rhs),rhsMax =  -7.66412577876906E+01  1.37174717435422E+00
(PID.TID 0000.0001)  ploadbar=  1.01004826055300E+05
 cg2d: Sum(rhs),rhsMax =  -7.63876813423953E+01  1.37583386885989E+00
(PID.TID 0000.0001)  ploadbar=  1.01003895934441E+05
 cg2d: Sum(rhs),rhsMax =  -7.61174966498135E+01  1.38020250629333E+00
(PID.TID 0000.0001)  ploadbar=  1.01002965813583E+05
 cg2d: Sum(rhs),rhsMax =  -7.58411921248095E+01  1.38466503890364E+00
(PID.TID 0000.0001)  ploadbar=  1.01002035692724E+05
 cg2d: Sum(rhs),rhsMax =  -7.56122331888408E+01  1.38834654618866E+00
(PID.TID 0000.0001)  ploadbar=  1.01002088671689E+05
 cg2d: Sum(rhs),rhsMax =  -7.54250983734506E+01  1.39133516062875E+00
(PID.TID 0000.0001)  ploadbar=  1.01002141650654E+05
 cg2d: Sum(rhs),rhsMax =  -7.52283180871686E+01  1.39457018354862E+00
(PID.TID 0000.0001)  ploadbar=  1.01002194629619E+05
 cg2d: Sum(rhs),rhsMax =  -7.50379691235344E+01  1.39774798834600E+00
(PID.TID 0000.0001)  ploadbar=  1.01002247608584E+05
 cg2d: Sum(rhs),rhsMax =  -7.48525016306082E+01  1.40089178994464E+00
(PID.TID 0000.0001)  ploadbar=  1.01002300587549E+05
 cg2d: Sum(rhs),rhsMax =  -7.46460831556292E+01  1.40448455127344E+00
(PID.TID 0000.0001)  ploadbar=  1.01002353566514E+05
 cg2d: Sum(rhs),rhsMax =  -7.44388338631593E+01  1.40812462086213E+00
(PID.TID 0000.0001)  ploadbar=  1.01002084293769E+05
 cg2d: Sum(rhs),rhsMax =  -7.42464398467948E+01  1.41151377905431E+00
(PID.TID 0000.0001)  ploadbar=  1.01001815021024E+05
 cg2d: Sum(rhs),rhsMax =  -7.40138755935194E+01  1.41569689736091E+00
(PID.TID 0000.0001)  ploadbar=  1.01001545748279E+05
 cg2d: Sum(rhs),rhsMax =  -7.41580572518651E+01  1.41269893789420E+00
(PID.TID 0000.0001)  ploadbar=  1.01001276475534E+05
 cg2d: Sum(rhs),rhsMax =  -6.94265253425485E+01  1.50871741479549E+00
(PID.TID 0000.0001)  ploadbar=  1.01001007202789E+05
 cg2d: Sum(rhs),rhsMax =  -6.15775191943000E+01  1.70073470154414E+00
(PID.TID 0000.0001)  ploadbar=  1.01000737930044E+05
 cg2d: Sum(rhs),rhsMax =  -5.42954516701923E+01  1.92851084433086E+00
(PID.TID 0000.0001)  ploadbar=  1.01000696353111E+05
 cg2d: Sum(rhs),rhsMax =  -4.92553431327330E+01  2.12549210221919E+00
(PID.TID 0000.0001)  ploadbar=  1.01000654776179E+05
 cg2d: Sum(rhs),rhsMax =  -4.50244447959999E+01  2.32482925613655E+00
(PID.TID 0000.0001)  ploadbar=  1.01000613199246E+05
 cg2d: Sum(rhs),rhsMax =  -4.19750123099682E+01  2.49328994091405E+00
(PID.TID 0000.0001)  ploadbar=  1.01000571622314E+05
 cg2d: Sum(rhs),rhsMax =  -3.91379052610057E+01  2.67353827684454E+00
(PID.TID 0000.0001)  ploadbar=  1.01000530045381E+05
 cg2d: Sum(rhs),rhsMax =  -3.70079258434872E+01  2.82686256159664E+00
(PID.TID 0000.0001)  ploadbar=  1.01000488468449E+05
 cg2d: Sum(rhs),rhsMax =  -3.56518300301880E+01  2.93377895077323E+00
(PID.TID 0000.0001)  ploadbar=  1.01000887906104E+05
 cg2d: Sum(rhs),rhsMax =  -3.46810634236293E+01  3.01523140612363E+00
(PID.TID 0000.0001)  ploadbar=  1.01001287343760E+05
 cg2d: Sum(rhs),rhsMax =  -3.41397329193083E+01  3.06231795409112E+00
(PID.TID 0000.0001)  ploadbar=  1.01001686781415E+05
 cg2d: Sum(rhs),rhsMax =  -3.39772446656638E+01  3.07618391109140E+00
(PID.TID 0000.0001)  ploadbar=  1.01002086219070E+05
 cg2d: Sum(rhs),rhsMax =  -3.41301303706210E+01  3.06157494228496E+00
(PID.TID 0000.0001)  ploadbar=  1.01002485656725E+05
 cg2d: Sum(rhs),rhsMax =  -3.46058848969918E+01  3.01860812265415E+00
(PID.TID 0000.0001)  ploadbar=  1.01002885094381E+05
 cg2d: Sum(rhs),rhsMax =  -3.53696122264908E+01  2.95265263450936E+00
(PID.TID 0000.0001)  ploadbar=  1.01002356310882E+05
 cg2d: Sum(rhs),rhsMax =  -3.63925701683596E+01  2.86897611065141E+00
(PID.TID 0000.0001)  ploadbar=  1.01001827527384E+05
 cg2d: Sum(rhs),rhsMax =  -3.76006796964720E+01  2.77620371701837E+00
(PID.TID 0000.0001)  ploadbar=  1.01001298743885E+05
 cg2d: Sum(rhs),rhsMax =  -3.91268654151766E+01  2.66740235099997E+00
(PID.TID 0000.0001)  ploadbar=  1.01000769960387E+05
 cg2d: Sum(rhs),rhsMax =  -4.08931267320830E+01  2.55174533446564E+00
(PID.TID 0000.0001)  ploadbar=  1.01000241176888E+05
 cg2d: Sum(rhs),rhsMax =  -4.27840511578638E+01  2.43857335916229E+00
(PID.TID 0000.0001)  ploadbar=  1.00999712393390E+05
 cg2d: Sum(rhs),rhsMax =  -4.47100794469261E+01  2.33316852093434E+00
(PID.TID 0000.0001)  ploadbar=  1.01000629195126E+05
 cg2d: Sum(rhs),rhsMax =  -4.66348518223322E+01  2.23654417700150E+00
(PID.TID 0000.0001)  ploadbar=  1.01001545996862E+05
 cg2d: Sum(rhs),rhsMax =  -4.85359606596563E+01  2.14863672337765E+00
(PID.TID 0000.0001)  ploadbar=  1.01002462798598E+05
 cg2d: Sum(rhs),rhsMax =  -5.05043354221577E+01  2.06460750611863E+00
(PID.TID 0000.0001)  ploadbar=  1.01003379600334E+05
 cg2d: Sum(rhs),rhsMax =  -4.83248435940238E+01  2.15742199992747E+00
(PID.TID 0000.0001)  ploadbar=  1.01004296402071E+05
 cg2d: Sum(rhs),rhsMax =  -4.54892906400995E+01  2.29157672503431E+00
(PID.TID 0000.0001)  ploadbar=  1.01005213203807E+05
 cg2d: Sum(rhs),rhsMax =  -4.32886036328952E+01  2.40772217280799E+00
(PID.TID 0000.0001)  ploadbar=  1.01005952425574E+05
 cg2d: Sum(rhs),rhsMax =  -4.15474121803140E+01  2.50823878518037E+00
(PID.TID 0000.0001)  ploadbar=  1.01006691647341E+05
 cg2d: Sum(rhs),rhsMax =  -4.01323525868745E+01  2.59624847880818E+00
(PID.TID 0000.0001)  ploadbar=  1.01007430869109E+05
 cg2d: Sum(rhs),rhsMax =  -3.89635903988021E+01  2.67364390919936E+00
(PID.TID 0000.0001)  ploadbar=  1.01008170090876E+05
 cg2d: Sum(rhs),rhsMax =  -3.79870273713229E+01  2.74183177928215E+00
(PID.TID 0000.0001)  ploadbar=  1.01008909312643E+05
 cg2d: Sum(rhs),rhsMax =  -3.71624188234208E+01  2.80204716873868E+00
(PID.TID 0000.0001)  ploadbar=  1.01009648534410E+05
 cg2d: Sum(rhs),rhsMax =  -3.64229058839135E+01  2.85825512105931E+00
(PID.TID 0000.0001)  ploadbar=  1.01010365342816E+05
 cg2d: Sum(rhs),rhsMax =  -3.57644355432644E+01  2.91012976597019E+00
(PID.TID 0000.0001)  ploadbar=  1.01011082151222E+05
 cg2d: Sum(rhs),rhsMax =  -3.53591708630240E+01  2.94266666443440E+00
(PID.TID 0000.0001)  ploadbar=  1.01011798959629E+05
 cg2d: Sum(rhs),rhsMax =  -3.51650074601255E+01  2.95802492892247E+00
(PID.TID 0000.0001)  ploadbar=  1.01012515768035E+05
 cg2d: Sum(rhs),rhsMax =  -3.50978984634909E+01  2.96271993425685E+00
(PID.TID 0000.0001)  ploadbar=  1.01013232576441E+05
 cg2d: Sum(rhs),rhsMax =  -3.50540033323543E+01  2.96538986779052E+00
(PID.TID 0000.0001)  ploadbar=  1.01013949384847E+05
 cg2d: Sum(rhs),rhsMax =  -3.50411661022537E+01  2.96554597564296E+00
(PID.TID 0000.0001)  ploadbar=  1.01014010139742E+05
 cg2d: Sum(rhs),rhsMax =  -3.50535791687910E+01  2.96366876957199E+00
(PID.TID 0000.0001)  ploadbar=  1.01014070894638E+05
 cg2d: Sum(rhs),rhsMax =  -3.50878326190832E+01  2.96004433477957E+00
(PID.TID 0000.0001)  ploadbar=  1.01014131649533E+05
 cg2d: Sum(rhs),rhsMax =  -3.51515628909068E+01  2.95403440876688E+00
(PID.TID 0000.0001)  ploadbar=  1.01014192404428E+05
 cg2d: Sum(rhs),rhsMax =  -3.52458971409928E+01  2.94556359565695E+00
(PID.TID 0000.0001)  ploadbar=  1.01014253159324E+05
 cg2d: Sum(rhs),rhsMax =  -3.53667956951194E+01  2.93500041702831E+00
(PID.TID 0000.0001)  ploadbar=  1.01014313914219E+05
 cg2d: Sum(rhs),rhsMax =  -3.55433711455194E+01  2.91991407934284E+00
(PID.TID 0000.0001)  ploadbar=  1.01016147119366E+05
 cg2d: Sum(rhs),rhsMax =  -3.57442042825740E+01  2.90298398510580E+00
(PID.TID 0000.0001)  ploadbar=  1.01017980324513E+05
 cg2d: Sum(rhs),rhsMax =  -3.59643137708448E+01  2.88466696913635E+00
(PID.TID 0000.0001)  ploadbar=  1.01019813529660E+05
 cg2d: Sum(rhs),rhsMax =  -3.61990706460208E+01  2.86537476899739E+00
(PID.TID 0000.0001)  ploadbar=  1.01021646734807E+05
 cg2d: Sum(rhs),rhsMax =  -3.64445290835682E+01  2.84545517644591E+00
(PID.TID 0000.0001)  ploadbar=  1.01023479939954E+05
 cg2d: Sum(rhs),rhsMax =  -3.66978082840326E+01  2.82515491318144E+00
(PID.TID 0000.0001)  ploadbar=  1.01025313145101E+05
 cg2d: Sum(rhs),rhsMax =  -3.69499516183409E+01  2.80525798566665E+00
(PID.TID 0000.0001)  ploadbar=  1.01027691607735E+05
 cg2d: Sum(rhs),rhsMax =  -3.72092739222600E+01  2.78511433135770E+00
(PID.TID 0000.0001)  ploadbar=  1.01030070070369E+05
 cg2d: Sum(rhs),rhsMax =  -3.74745347459116E+01  2.76482440461676E+00
(PID.TID 0000.0001)  ploadbar=  1.01032448533003E+05
 cg2d: Sum(rhs),rhsMax =  -3.77460978203064E+01  2.74437125338021E+00
(PID.TID 0000.0001)  ploadbar=  1.01034826995637E+05
 cg2d: Sum(rhs),rhsMax =  -3.80237364891020E+01  2.72377573369458E+00
(PID.TID 0000.0001)  ploadbar=  1.01037205458271E+05
 cg2d: Sum(rhs),rhsMax =  -3.83075236647382E+01  2.70303625672875E+00
(PID.TID 0000.0001)  ploadbar=  1.01039583920905E+05
 cg2d: Sum(rhs),rhsMax =  -3.86040438506421E+01  2.68169837829233E+00
(PID.TID 0000.0001)  ploadbar=  1.01041229190506E+05
 cg2d: Sum(rhs),rhsMax =  -3.89097880273685E+01  2.66003232277180E+00
(PID.TID 0000.0001)  ploadbar=  1.01042874460107E+05
 cg2d: Sum(rhs),rhsMax =  -3.92255305826108E+01  2.63800387076842E+00
(PID.TID 0000.0001)  ploadbar=  1.01044519729709E+05
 cg2d: Sum(rhs),rhsMax =  -3.95513742848423E+01  2.61562473278797E+00
(PID.TID 0000.0001)  ploadbar=  1.01046164999310E+05
 cg2d: Sum(rhs),rhsMax =  -3.98874346688680E+01  2.59290326857854E+00
(PID.TID 0000.0001)  ploadbar=  1.01047810268911E+05
 cg2d: Sum(rhs),rhsMax =  -4.02331709082476E+01  2.56989225428877E+00
(PID.TID 0000.0001)  ploadbar=  1.01049455538512E+05
 cg2d: Sum(rhs),rhsMax =  -4.05790139403179E+01  2.54731900273120E+00
(PID.TID 0000.0001)  ploadbar=  1.01051461323973E+05
 cg2d: Sum(rhs),rhsMax =  -4.09330497263712E+01  2.52466646718612E+00
(PID.TID 0000.0001)  ploadbar=  1.01053467109433E+05
 cg2d: Sum(rhs),rhsMax =  -4.12924575341087E+01  2.50211248630156E+00
(PID.TID 0000.0001)  ploadbar=  1.01055472894893E+05
 cg2d: Sum(rhs),rhsMax =  -4.16586425773601E+01  2.47957252011067E+00
(PID.TID 0000.0001)  ploadbar=  1.01057478680354E+05
 cg2d: Sum(rhs),rhsMax =  -4.20320633051410E+01  2.45701845933866E+00
(PID.TID 0000.0001)  ploadbar=  1.01059484465814E+05
 cg2d: Sum(rhs),rhsMax =  -4.24134616098184E+01  2.43440973091953E+00
(PID.TID 0000.0001)  ploadbar=  1.01061490251275E+05
 cg2d: Sum(rhs),rhsMax =  -4.28067578240829E+01  2.41149508188015E+00
(PID.TID 0000.0001)  ploadbar=  1.01063246779660E+05
 cg2d: Sum(rhs),rhsMax =  -4.32010302080586E+01  2.38890039081200E+00
(PID.TID 0000.0001)  ploadbar=  1.01065003308045E+05
 cg2d: Sum(rhs),rhsMax =  -4.36014383984298E+01  2.36633258785271E+00
(PID.TID 0000.0001)  ploadbar=  1.01066759836430E+05
 cg2d: Sum(rhs),rhsMax =  -4.40063567263050E+01  2.34388166196462E+00
(PID.TID 0000.0001)  ploadbar=  1.01068516364815E+05
 cg2d: Sum(rhs),rhsMax =  -4.44173763574326E+01  2.32146238237016E+00
(PID.TID 0000.0001)  ploadbar=  1.01070272893201E+05
 cg2d: Sum(rhs),rhsMax =  -4.48348038980379E+01  2.29906251602796E+00
(PID.TID 0000.0001)  ploadbar=  1.01072029421586E+05
 cg2d: Sum(rhs),rhsMax =  -4.52586410882737E+01  2.27679615982133E+00
(PID.TID 0000.0001)  ploadbar=  1.01073260296643E+05
 cg2d: Sum(rhs),rhsMax =  -4.56845273177762E+01  2.25487186053860E+00
(PID.TID 0000.0001)  ploadbar=  1.01074491171700E+05
 cg2d: Sum(rhs),rhsMax =  -4.61112021859028E+01  2.23333737004023E+00
(PID.TID 0000.0001)  ploadbar=  1.01075722046757E+05
 cg2d: Sum(rhs),rhsMax =  -4.65345089768202E+01  2.21237343975023E+00
(PID.TID 0000.0001)  ploadbar=  1.01076952921814E+05
 cg2d: Sum(rhs),rhsMax =  -4.69495132168115E+01  2.19218421994380E+00
(PID.TID 0000.0001)  ploadbar=  1.01078183796871E+05
 cg2d: Sum(rhs),rhsMax =  -4.73485267717518E+01  2.17308276113224E+00
(PID.TID 0000.0001)  ploadbar=  1.01079414671928E+05
 cg2d: Sum(rhs),rhsMax =  -4.77419459270781E+01  2.15453122202279E+00
(PID.TID 0000.0001)  ploadbar=  1.01080233914893E+05
 cg2d: Sum(rhs),rhsMax =  -4.81163144744677E+01  2.13710292152113E+00
(PID.TID 0000.0001)  ploadbar=  1.01081053157858E+05
 cg2d: Sum(rhs),rhsMax =  -4.84684154795300E+01  2.12088230370974E+00
(PID.TID 0000.0001)  ploadbar=  1.01081872400823E+05
 cg2d: Sum(rhs),rhsMax =  -4.87959369835085E+01  2.10590949646603E+00
(PID.TID 0000.0001)  ploadbar=  1.01082691643788E+05
 cg2d: Sum(rhs),rhsMax =  -4.91013169380141E+01  2.09202775210563E+00
(PID.TID 0000.0001)  ploadbar=  1.01083510886753E+05
 cg2d: Sum(rhs),rhsMax =  -4.93851220148676E+01  2.07916871912344E+00
(PID.TID 0000.0001)  ploadbar=  1.01084330129718E+05
 cg2d: Sum(rhs),rhsMax =  -4.96538421975376E+01  2.06716388024655E+00
(PID.TID 0000.0001)  ploadbar=  1.01084636131699E+05
 cg2d: Sum(rhs),rhsMax =  -4.99315700821289E+01  2.05499409351755E+00
(PID.TID 0000.0001)  ploadbar=  1.01084942133680E+05
 cg2d: Sum(rhs),rhsMax =  -5.01937219869588E+01  2.04366179444596E+00
(PID.TID 0000.0001)  ploadbar=  1.01085248135661E+05
 cg2d: Sum(rhs),rhsMax =  -5.04334916034077E+01  2.03341092275981E+00
(PID.TID 0000.0001)  ploadbar=  1.01085554137641E+05
 cg2d: Sum(rhs),rhsMax =  -5.06559460412845E+01  2.02400203141749E+00
(PID.TID 0000.0001)  ploadbar=  1.01085860139622E+05
 cg2d: Sum(rhs),rhsMax =  -5.08532682051829E+01  2.01572248362702E+00
(PID.TID 0000.0001)  ploadbar=  1.01086166141603E+05
 cg2d: Sum(rhs),rhsMax =  -5.10365747064467E+01  2.00805692854893E+00
(PID.TID 0000.0001)  ploadbar=  1.01085337284306E+05
 cg2d: Sum(rhs),rhsMax =  -5.11903918862961E+01  2.00159262004364E+00
(PID.TID 0000.0001)  ploadbar=  1.01084508427009E+05
 cg2d: Sum(rhs),rhsMax =  -5.12918890768445E+01  1.99719021930729E+00
(PID.TID 0000.0001)  ploadbar=  1.01083679569712E+05
 cg2d: Sum(rhs),rhsMax =  -5.13592801930440E+01  1.99411292830001E+00
(PID.TID 0000.0001)  ploadbar=  1.01082850712415E+05
 cg2d: Sum(rhs),rhsMax =  -5.14116162536641E+01  1.99160094502177E+00
(PID.TID 0000.0001)  ploadbar=  1.01082021855118E+05
 cg2d: Sum(rhs),rhsMax =  -5.14583787502799E+01  1.98927670881882E+00
(PID.TID 0000.0001)  ploadbar=  1.01081192997821E+05
 cg2d: Sum(rhs),rhsMax =  -5.14791410584660E+01  1.98800831790904E+00
(PID.TID 0000.0001)  ploadbar=  1.01079912296023E+05
 cg2d: Sum(rhs),rhsMax =  -5.14854752058337E+01  1.98734140230134E+00
(PID.TID 0000.0001)  ploadbar=  1.01078631594224E+05
 cg2d: Sum(rhs),rhsMax =  -5.14595928134200E+01  1.98795563479377E+00
(PID.TID 0000.0001)  ploadbar=  1.01077350892426E+05
 cg2d: Sum(rhs),rhsMax =  -5.14091566124099E+01  1.98954880765325E+00
(PID.TID 0000.0001)  ploadbar=  1.01076070190628E+05
 cg2d: Sum(rhs),rhsMax =  -5.13445562718232E+01  1.99171592400566E+00
(PID.TID 0000.0001)  ploadbar=  1.01074789488829E+05
 cg2d: Sum(rhs),rhsMax =  -5.12467958111065E+01  1.99519652407367E+00
(PID.TID 0000.0001)  ploadbar=  1.01073508787031E+05
 cg2d: Sum(rhs),rhsMax =  -5.10794929681343E+01  2.00139911282650E+00
(PID.TID 0000.0001)  ploadbar=  1.01073027512710E+05
 cg2d: Sum(rhs),rhsMax =  -5.09139688613996E+01  2.00755844598960E+00
(PID.TID 0000.0001)  ploadbar=  1.01072546238388E+05
 cg2d: Sum(rhs),rhsMax =  -5.07734763899768E+01  2.01274659777449E+00
(PID.TID 0000.0001)  ploadbar=  1.01072064964066E+05
 cg2d: Sum(rhs),rhsMax =  -5.06962764763879E+01  2.01541914000104E+00
(PID.TID 0000.0001)  ploadbar=  1.01071583689745E+05
 cg2d: Sum(rhs),rhsMax =  -5.07191978434006E+01  2.01408405167511E+00
(PID.TID 0000.0001)  ploadbar=  1.01071102415423E+05
 cg2d: Sum(rhs),rhsMax =  -5.08637014364293E+01  2.00790330053425E+00
(PID.TID 0000.0001)  ploadbar=  1.01070621141102E+05
 cg2d: Sum(rhs),rhsMax =  -5.11911759454062E+01  1.99466724949620E+00
(PID.TID 0000.0001)  ploadbar=  1.01070750223783E+05
 cg2d: Sum(rhs),rhsMax =  -5.17621612696631E+01  1.97233885358415E+00
(PID.TID 0000.0001)  ploadbar=  1.01070879306465E+05
 cg2d: Sum(rhs),rhsMax =  -5.22405540327905E+01  1.95401033665278E+00
(PID.TID 0000.0001)  ploadbar=  1.01071008389146E+05
 cg2d: Sum(rhs),rhsMax =  -5.20252578977611E+01  1.96187908033830E+00
(PID.TID 0000.0001)  ploadbar=  1.01071137471827E+05
 cg2d: Sum(rhs),rhsMax =  -5.17729336294245E+01  1.97126691585942E+00
(PID.TID 0000.0001)  ploadbar=  1.01071266554509E+05
 cg2d: Sum(rhs),rhsMax =  -5.14776546055767E+01  1.98243670497167E+00
(PID.TID 0000.0001)  ploadbar=  1.01071395637191E+05
 cg2d: Sum(rhs),rhsMax =  -5.11772785624909E+01  1.99391912805854E+00
(PID.TID 0000.0001)  ploadbar=  1.01072734981630E+05
 cg2d: Sum(rhs),rhsMax =  -5.08670280139235E+01  2.00590759983979E+00
(PID.TID 0000.0001)  ploadbar=  1.01074074326071E+05
 cg2d: Sum(rhs),rhsMax =  -5.05668433237887E+01  2.01761705977273E+00
(PID.TID 0000.0001)  ploadbar=  1.01075413670511E+05
 cg2d: Sum(rhs),rhsMax =  -5.02853401073679E+01  2.02868185994998E+00
(PID.TID 0000.0001)  ploadbar=  1.01076753014951E+05
 cg2d: Sum(rhs),rhsMax =  -5.00266081365293E+01  2.03890688384994E+00
(PID.TID 0000.0001)  ploadbar=  1.01078092359391E+05
 cg2d: Sum(rhs),rhsMax =  -4.97917712976882E+01  2.04821479304851E+00
(PID.TID 0000.0001)  ploadbar=  1.01079431703831E+05
 cg2d: Sum(rhs),rhsMax =  -4.95824573831474E+01  2.05658226973383E+00
(PID.TID 0000.0001)  ploadbar=  1.01079398214477E+05
 cg2d: Sum(rhs),rhsMax =  -4.93908753563055E+01  2.06430413992739E+00
(PID.TID 0000.0001)  ploadbar=  1.01079364725124E+05
 cg2d: Sum(rhs),rhsMax =  -4.92068793457562E+01  2.07178663631575E+00
(PID.TID 0000.0001)  ploadbar=  1.01079331235770E+05
 cg2d: Sum(rhs),rhsMax =  -4.90350367445661E+01  2.07882315954198E+00
(PID.TID 0000.0001)  ploadbar=  1.01079297746417E+05
 cg2d: Sum(rhs),rhsMax =  -4.88793413545802E+01  2.08523033384248E+00
(PID.TID 0000.0001)  ploadbar=  1.01079264257063E+05
 cg2d: Sum(rhs),rhsMax =  -4.87637388485557E+01  2.08996678524327E+00
(PID.TID 0000.0001)  ploadbar=  1.01079230767710E+05
 cg2d: Sum(rhs),rhsMax =  -4.86535851044508E+01  2.09448957442441E+00
(PID.TID 0000.0001)  ploadbar=  1.01079499770181E+05
 cg2d: Sum(rhs),rhsMax =  -4.85713241897426E+01  2.09782400075216E+00
(PID.TID 0000.0001)  ploadbar=  1.01079768772651E+05
 cg2d: Sum(rhs),rhsMax =  -4.85223210309741E+01  2.09972107747423E+00
(PID.TID 0000.0001)  ploadbar=  1.01080037775122E+05
 cg2d: Sum(rhs),rhsMax =  -4.85267897701362E+01  2.09929440068880E+00
(PID.TID 0000.0001)  ploadbar=  1.01080306777593E+05
 cg2d: Sum(rhs),rhsMax =  -4.86130748611630E+01  2.09531748363005E+00
(PID.TID 0000.0001)  ploadbar=  1.01080575780064E+05
 cg2d: Sum(rhs),rhsMax =  -4.88050930925791E+01  2.08680320968645E+00
(PID.TID 0000.0001)  ploadbar=  1.01080844782535E+05
 cg2d: Sum(rhs),rhsMax =  -4.90407551826112E+01  2.07655811217956E+00
(PID.TID 0000.0001)  ploadbar=  1.01079508708155E+05
 cg2d: Sum(rhs),rhsMax =  -4.93279477884517E+01  2.06430284523605E+00
(PID.TID 0000.0001)  ploadbar=  1.01078172633775E+05
 cg2d: Sum(rhs),rhsMax =  -4.96965013465193E+01  2.04887944054788E+00
(PID.TID 0000.0001)  ploadbar=  1.01076836559395E+05
 cg2d: Sum(rhs),rhsMax =  -5.04353589545030E+01  2.01879822640979E+00
(PID.TID 0000.0001)  ploadbar=  1.01075500485016E+05
 cg2d: Sum(rhs),rhsMax =  -5.13619892842027E+01  1.98235378646603E+00
(PID.TID 0000.0001)  ploadbar=  1.01074164410636E+05
 cg2d: Sum(rhs),rhsMax =  -5.23849109057817E+01  1.94366032325832E+00
(PID.TID 0000.0001)  ploadbar=  1.01072828336256E+05
 cg2d: Sum(rhs),rhsMax =  -5.29875779379120E+01  1.92153251016976E+00
(PID.TID 0000.0001)  ploadbar=  1.01072570594464E+05
 cg2d: Sum(rhs),rhsMax =  -5.26914597662685E+01  1.93227036544611E+00
(PID.TID 0000.0001)  ploadbar=  1.01072312852672E+05
 cg2d: Sum(rhs),rhsMax =  -5.20997163404679E+01  1.95411134880540E+00
(PID.TID 0000.0001)  ploadbar=  1.01072055110880E+05
 cg2d: Sum(rhs),rhsMax =  -5.22507029678529E+01  1.94831285155171E+00
(PID.TID 0000.0001)  ploadbar=  1.01071797369087E+05
 cg2d: Sum(rhs),rhsMax =  -5.18287875761006E+01  1.96397084119908E+00
(PID.TID 0000.0001)  ploadbar=  1.01071539627295E+05
 cg2d: Sum(rhs),rhsMax =  -5.10510902964447E+01  1.99363470516517E+00
(PID.TID 0000.0001)  ploadbar=  1.01071281885503E+05
 cg2d: Sum(rhs),rhsMax =  -5.02865095176586E+01  2.02369656400811E+00
(PID.TID 0000.0001)  ploadbar=  1.01070540366926E+05
 cg2d: Sum(rhs),rhsMax =  -4.95516267922311E+01  2.05345706666278E+00
(PID.TID 0000.0001)  ploadbar=  1.01069798848350E+05
 cg2d: Sum(rhs),rhsMax =  -4.88365896316462E+01  2.08326457467991E+00
(PID.TID 0000.0001)  ploadbar=  1.01069057329773E+05
 cg2d: Sum(rhs),rhsMax =  -4.81396823080923E+01  2.11315437991761E+00
(PID.TID 0000.0001)  ploadbar=  1.01068315811196E+05
 cg2d: Sum(rhs),rhsMax =  -4.65588313976947E+01  2.18460977414587E+00
(PID.TID 0000.0001)  ploadbar=  1.01067574292619E+05
 cg2d: Sum(rhs),rhsMax =  -4.44056169861934E+01  2.29021050356822E+00
(PID.TID 0000.0001)  ploadbar=  1.01066832774042E+05
 cg2d: Sum(rhs),rhsMax =  -4.26050717113710E+01  2.38661143440305E+00
(PID.TID 0000.0001)  ploadbar=  1.01066141915548E+05
 cg2d: Sum(rhs),rhsMax =  -4.10941398249932E+01  2.47391609373350E+00
(PID.TID 0000.0001)  ploadbar=  1.01065451057054E+05
 cg2d: Sum(rhs),rhsMax =  -3.99107886834920E+01  2.54675716744404E+00
(PID.TID 0000.0001)  ploadbar=  1.01064760198559E+05
 cg2d: Sum(rhs),rhsMax =  -3.90062385422950E+01  2.60523043044117E+00
(PID.TID 0000.0001)  ploadbar=  1.01064069340065E+05
 cg2d: Sum(rhs),rhsMax =  -3.83700186519993E+01  2.64776148333675E+00
(PID.TID 0000.0001)  ploadbar=  1.01063378481571E+05
 cg2d: Sum(rhs),rhsMax =  -3.77252653851574E+01  2.69225581709147E+00
(PID.TID 0000.0001)  ploadbar=  1.01062687623076E+05
 cg2d: Sum(rhs),rhsMax =  -3.73258333213574E+01  2.72039662398833E+00
(PID.TID 0000.0001)  ploadbar=  1.01062871133530E+05
 cg2d: Sum(rhs),rhsMax =  -3.72736359269001E+01  2.72362697097818E+00
(PID.TID 0000.0001)  ploadbar=  1.01063054643983E+05
 cg2d: Sum(rhs),rhsMax =  -3.76243807696298E+01  2.69775192088947E+00
(PID.TID 0000.0001)  ploadbar=  1.01063238154437E+05
 cg2d: Sum(rhs),rhsMax =  -3.81124765450239E+01  2.66280242693198E+00
(PID.TID 0000.0001)  ploadbar=  1.01063421664890E+05
 cg2d: Sum(rhs),rhsMax =  -3.85572005299012E+01  2.63176580053713E+00
(PID.TID 0000.0001)  ploadbar=  1.01063605175344E+05
 cg2d: Sum(rhs),rhsMax =  -3.88515678333958E+01  2.61157310085759E+00
(PID.TID 0000.0001)  ploadbar=  1.01063788685797E+05
 cg2d: Sum(rhs),rhsMax =  -3.88221304764413E+01  2.61329819973423E+00
(PID.TID 0000.0001)  ploadbar=  1.01063904249148E+05
 cg2d: Sum(rhs),rhsMax =  -3.85654967983741E+01  2.63042531330555E+00
(PID.TID 0000.0001)  ploadbar=  1.01064019812500E+05
 cg2d: Sum(rhs),rhsMax =  -3.81729632612914E+01  2.65719509952654E+00
(PID.TID 0000.0001)  ploadbar=  1.01064135375851E+05
 cg2d: Sum(rhs),rhsMax =  -3.76926292723246E+01  2.69075972088061E+00
(PID.TID 0000.0001)  ploadbar=  1.01064250939202E+05
 cg2d: Sum(rhs),rhsMax =  -3.71817393100476E+01  2.72741196267513E+00
(PID.TID 0000.0001)  ploadbar=  1.01064366502553E+05
 cg2d: Sum(rhs),rhsMax =  -3.66416826626127E+01  2.76726631562124E+00
(PID.TID 0000.0001)  ploadbar=  1.01064482065904E+05
 cg2d: Sum(rhs),rhsMax =  -3.60619629803345E+01  2.81133773222140E+00
(PID.TID 0000.0001)  ploadbar=  1.01065025376384E+05
 cg2d: Sum(rhs),rhsMax =  -3.54284704832658E+01  2.86111312673550E+00
(PID.TID 0000.0001)  ploadbar=  1.01065568686864E+05
 cg2d: Sum(rhs),rhsMax =  -3.47885969654834E+01  2.91316009023407E+00
(PID.TID 0000.0001)  ploadbar=  1.01066111997344E+05
 cg2d: Sum(rhs),rhsMax =  -3.41862276152392E+01  2.96381851288150E+00
(PID.TID 0000.0001)  ploadbar=  1.01066655307824E+05
 cg2d: Sum(rhs),rhsMax =  -3.36445945756119E+01  3.01075873674240E+00
(PID.TID 0000.0001)  ploadbar=  1.01067198618305E+05
 cg2d: Sum(rhs),rhsMax =  -3.31866862661727E+01  3.05141881685398E+00
(PID.TID 0000.0001)  ploadbar=  1.01067741928785E+05
 cg2d: Sum(rhs),rhsMax =  -3.30958730369189E+01  3.05885181560264E+00
(PID.TID 0000.0001)  ploadbar=  1.01068187669685E+05
 cg2d: Sum(rhs),rhsMax =  -3.32958819172076E+01  3.03948317367159E+00
(PID.TID 0000.0001)  ploadbar=  1.01068633410586E+05
 cg2d: Sum(rhs),rhsMax =  -3.33972191318157E+01  3.02920265457839E+00
(PID.TID 0000.0001)  ploadbar=  1.01069079151486E+05
 cg2d: Sum(rhs),rhsMax =  -3.35236805098693E+01  3.01664600672188E+00
(PID.TID 0000.0001)  ploadbar=  1.01069524892387E+05
 cg2d: Sum(rhs),rhsMax =  -3.36666778983387E+01  3.00262397188665E+00
(PID.TID 0000.0001)  ploadbar=  1.01069970633288E+05
 cg2d: Sum(rhs),rhsMax =  -3.38322061405793E+01  2.98663545510881E+00
(PID.TID 0000.0001)  ploadbar=  1.01070416374188E+05
 cg2d: Sum(rhs),rhsMax =  -3.40326023265273E+01  2.96780308262766E+00
(PID.TID 0000.0001)  ploadbar=  1.01071685352178E+05
 cg2d: Sum(rhs),rhsMax =  -3.42665411017345E+01  2.94634252230737E+00
(PID.TID 0000.0001)  ploadbar=  1.01072954330167E+05
 cg2d: Sum(rhs),rhsMax =  -3.45215981997428E+01  2.92341684156390E+00
(PID.TID 0000.0001)  ploadbar=  1.01074223308156E+05
 cg2d: Sum(rhs),rhsMax =  -3.47919887279164E+01  2.89957212989579E+00
(PID.TID 0000.0001)  ploadbar=  1.01075492286146E+05
 cg2d: Sum(rhs),rhsMax =  -3.50700169258017E+01  2.87548058659055E+00
(PID.TID 0000.0001)  ploadbar=  1.01076761264135E+05
 cg2d: Sum(rhs),rhsMax =  -3.53450792937232E+01  2.85200935337881E+00
(PID.TID 0000.0001)  ploadbar=  1.01078030242125E+05
 cg2d: Sum(rhs),rhsMax =  -3.56189842923569E+01  2.82896493580288E+00
(PID.TID 0000.0001)  ploadbar=  1.01079447088565E+05
 cg2d: Sum(rhs),rhsMax =  -3.58837009873569E+01  2.80695690795055E+00
(PID.TID 0000.0001)  ploadbar=  1.01080863935005E+05
 cg2d: Sum(rhs),rhsMax =  -3.61368982265584E+01  2.78611911349312E+00
(PID.TID 0000.0001)  ploadbar=  1.01082280781446E+05
 cg2d: Sum(rhs),rhsMax =  -3.63824427745981E+01  2.76610730010090E+00
(PID.TID 0000.0001)  ploadbar=  1.01083697627886E+05
 cg2d: Sum(rhs),rhsMax =  -3.66063850783468E+01  2.74793339489203E+00
(PID.TID 0000.0001)  ploadbar=  1.01085114474326E+05
 cg2d: Sum(rhs),rhsMax =  -3.68062293320439E+01  2.73171233423745E+00
(PID.TID 0000.0001)  ploadbar=  1.01086531320767E+05
 cg2d: Sum(rhs),rhsMax =  -3.69604129904904E+01  2.71903782939106E+00
(PID.TID 0000.0001)  ploadbar=  1.01087920924903E+05
 cg2d: Sum(rhs),rhsMax =  -3.70828617612021E+01  2.70879459818968E+00
(PID.TID 0000.0001)  ploadbar=  1.01089310529039E+05
 cg2d: Sum(rhs),rhsMax =  -3.71714323819090E+01  2.70108281859434E+00
(PID.TID 0000.0001)  ploadbar=  1.01090700133175E+05
 cg2d: Sum(rhs),rhsMax =  -3.72337858591237E+01  2.69529834455414E+00
(PID.TID 0000.0001)  ploadbar=  1.01092089737311E+05
 cg2d: Sum(rhs),rhsMax =  -3.72819883209114E+01  2.69054354058566E+00
(PID.TID 0000.0001)  ploadbar=  1.01093479341447E+05
 cg2d: Sum(rhs),rhsMax =  -3.73237427105743E+01  2.68624670419839E+00
(PID.TID 0000.0001)  ploadbar=  1.01094868945583E+05
 cg2d: Sum(rhs),rhsMax =  -3.73437856864621E+01  2.68351017593167E+00
(PID.TID 0000.0001)  ploadbar=  1.01095455152549E+05
 cg2d: Sum(rhs),rhsMax =  -3.73662971296802E+01  2.68058702897123E+00
(PID.TID 0000.0001)  ploadbar=  1.01096041359516E+05
 cg2d: Sum(rhs),rhsMax =  -3.73866071943504E+01  2.67780893264576E+00
(PID.TID 0000.0001)  ploadbar=  1.01096627566483E+05
 cg2d: Sum(rhs),rhsMax =  -3.74048678863346E+01  2.67515721728501E+00
(PID.TID 0000.0001)  ploadbar=  1.01097213773450E+05
 cg2d: Sum(rhs),rhsMax =  -3.74205009204555E+01  2.67266665889031E+00
(PID.TID 0000.0001)  ploadbar=  1.01097799980416E+05
 cg2d: Sum(rhs),rhsMax =  -3.74287025345572E+01  2.67067414384526E+00
(PID.TID 0000.0001)  ploadbar=  1.01098386187383E+05
 cg2d: Sum(rhs),rhsMax =  -3.74044036882795E+01  2.67105065859953E+00
(PID.TID 0000.0001)  ploadbar=  1.01098762334951E+05
 cg2d: Sum(rhs),rhsMax =  -3.73707194700809E+01  2.67214551131542E+00
(PID.TID 0000.0001)  ploadbar=  1.01099138482520E+05
 cg2d: Sum(rhs),rhsMax =  -3.73340935564553E+01  2.67349796180171E+00
(PID.TID 0000.0001)  ploadbar=  1.01099514630088E+05
 cg2d: Sum(rhs),rhsMax =  -3.72975482371724E+01  2.67488096196130E+00
(PID.TID 0000.0001)  ploadbar=  1.01099890777657E+05
 cg2d: Sum(rhs),rhsMax =  -3.72638860837203E+01  2.67608403383568E+00
(PID.TID 0000.0001)  ploadbar=  1.01100266925225E+05
 cg2d: Sum(rhs),rhsMax =  -3.72373344939548E+01  2.67679004448690E+00
(PID.TID 0000.0001)  ploadbar=  1.01100643072794E+05
 cg2d: Sum(rhs),rhsMax =  -3.72328785033574E+01  2.67598691370124E+00
(PID.TID 0000.0001)  ploadbar=  1.01100940399897E+05
 cg2d: Sum(rhs),rhsMax =  -3.72168380910309E+01  2.67608963388455E+00
(PID.TID 0000.0001)  ploadbar=  1.01101237727001E+05
 cg2d: Sum(rhs),rhsMax =  -3.71887688887693E+01  2.67712250249102E+00
(PID.TID 0000.0001)  ploadbar=  1.01101535054104E+05
 cg2d: Sum(rhs),rhsMax =  -3.71404187313856E+01  2.67967538614991E+00
(PID.TID 0000.0001)  ploadbar=  1.01101832381208E+05
 cg2d: Sum(rhs),rhsMax =  -3.70679103534721E+01  2.68403411159139E+00
(PID.TID 0000.0001)  ploadbar=  1.01102129708311E+05
 cg2d: Sum(rhs),rhsMax =  -3.69695536354538E+01  2.69033643945873E+00
(PID.TID 0000.0001)  ploadbar=  1.01102427035415E+05
 cg2d: Sum(rhs),rhsMax =  -3.68511742201621E+01  2.69820014983819E+00
(PID.TID 0000.0001)  ploadbar=  1.01103557619709E+05
 cg2d: Sum(rhs),rhsMax =  -3.67080006728516E+01  2.70799742470473E+00
(PID.TID 0000.0001)  ploadbar=  1.01104688204003E+05
 cg2d: Sum(rhs),rhsMax =  -3.65334281417683E+01  2.72025247894025E+00
(PID.TID 0000.0001)  ploadbar=  1.01105818788297E+05
 cg2d: Sum(rhs),rhsMax =  -3.63186527769470E+01  2.73568476735674E+00
(PID.TID 0000.0001)  ploadbar=  1.01106949372591E+05
 cg2d: Sum(rhs),rhsMax =  -3.60669537564576E+01  2.75414390187233E+00
(PID.TID 0000.0001)  ploadbar=  1.01108079956886E+05
 cg2d: Sum(rhs),rhsMax =  -3.57803364021142E+01  2.77558428641213E+00
(PID.TID 0000.0001)  ploadbar=  1.01109210541180E+05
 cg2d: Sum(rhs),rhsMax =  -3.54532025627021E+01  2.80048902480617E+00
(PID.TID 0000.0001)  ploadbar=  1.01108598721862E+05
 cg2d: Sum(rhs),rhsMax =  -3.50976392618880E+01  2.82806187307331E+00
(PID.TID 0000.0001)  ploadbar=  1.01107986902545E+05
 cg2d: Sum(rhs),rhsMax =  -3.47197226069781E+01  2.85794736523542E+00
(PID.TID 0000.0001)  ploadbar=  1.01107375083227E+05
 cg2d: Sum(rhs),rhsMax =  -3.43340740804291E+01  2.88902873815099E+00
(PID.TID 0000.0001)  ploadbar=  1.01106763263910E+05
 cg2d: Sum(rhs),rhsMax =  -3.39408468910586E+01  2.92135440437065E+00
(PID.TID 0000.0001)  ploadbar=  1.01106151444593E+05
 cg2d: Sum(rhs),rhsMax =  -3.35492497841702E+01  2.95417671884603E+00
(PID.TID 0000.0001)  ploadbar=  1.01105539625275E+05
 cg2d: Sum(rhs),rhsMax =  -3.31860188531858E+01  2.98531267058432E+00
(PID.TID 0000.0001)  ploadbar=  1.01105070464296E+05
 cg2d: Sum(rhs),rhsMax =  -3.28632313222222E+01  3.01351362477899E+00
(PID.TID 0000.0001)  ploadbar=  1.01104601303317E+05
 cg2d: Sum(rhs),rhsMax =  -3.25797713610162E+01  3.03868631705467E+00
(PID.TID 0000.0001)  ploadbar=  1.01104132142338E+05
 cg2d: Sum(rhs),rhsMax =  -3.23357850125279E+01  3.06063530697833E+00
(PID.TID 0000.0001)  ploadbar=  1.01103662981359E+05
 cg2d: Sum(rhs),rhsMax =  -3.21285602235129E+01  3.07945450148820E+00
(PID.TID 0000.0001)  ploadbar=  1.01103193820381E+05
 cg2d: Sum(rhs),rhsMax =  -3.19533690292694E+01  3.09547110843719E+00
(PID.TID 0000.0001)  ploadbar=  1.01102724659401E+05
 cg2d: Sum(rhs),rhsMax =  -3.18033646918614E+01  3.10925843248359E+00
(PID.TID 0000.0001)  ploadbar=  1.01102248446998E+05
 cg2d: Sum(rhs),rhsMax =  -3.18450351069997E+01  3.10442801754911E+00
(PID.TID 0000.0001)  ploadbar=  1.01101772234595E+05
 cg2d: Sum(rhs),rhsMax =  -3.20508771449365E+01  3.08376818913783E+00
(PID.TID 0000.0001)  ploadbar=  1.01101296022192E+05
 cg2d: Sum(rhs),rhsMax =  -3.22595268230808E+01  3.06312997541779E+00
(PID.TID 0000.0001)  ploadbar=  1.01100819809789E+05
 cg2d: Sum(rhs),rhsMax =  -3.24700346804726E+01  3.04259388830545E+00
(PID.TID 0000.0001)  ploadbar=  1.01100343597386E+05
 cg2d: Sum(rhs),rhsMax =  -3.26817765917499E+01  3.02221670042345E+00
(PID.TID 0000.0001)  ploadbar=  1.01099867384983E+05
 cg2d: Sum(rhs),rhsMax =  -3.29026476917202E+01  3.00128782796451E+00
(PID.TID 0000.0001)  ploadbar=  1.01099539901682E+05
 cg2d: Sum(rhs),rhsMax =  -3.31271721406212E+01  2.98032516642515E+00
(PID.TID 0000.0001)  ploadbar=  1.01099212418382E+05
 cg2d: Sum(rhs),rhsMax =  -3.33540931175256E+01  2.95944361950020E+00
(PID.TID 0000.0001)  ploadbar=  1.01098884935082E+05
 cg2d: Sum(rhs),rhsMax =  -3.35862090524237E+01  2.93839231291073E+00
(PID.TID 0000.0001)  ploadbar=  1.01098557451782E+05
 cg2d: Sum(rhs),rhsMax =  -3.38242954254443E+01  2.91710757368874E+00
(PID.TID 0000.0001)  ploadbar=  1.01098229968482E+05
 cg2d: Sum(rhs),rhsMax =  -3.40676864750189E+01  2.89565506131259E+00
(PID.TID 0000.0001)  ploadbar=  1.01097902485181E+05
 cg2d: Sum(rhs),rhsMax =  -3.43148823086433E+01  2.87412550431188E+00
(PID.TID 0000.0001)  ploadbar=  1.01096837892639E+05
 cg2d: Sum(rhs),rhsMax =  -3.45666757357911E+01  2.85245742278595E+00
(PID.TID 0000.0001)  ploadbar=  1.01095773300097E+05
 cg2d: Sum(rhs),rhsMax =  -3.48260504716490E+01  2.83041170666776E+00
(PID.TID 0000.0001)  ploadbar=  1.01094708707555E+05
 cg2d: Sum(rhs),rhsMax =  -3.50946026596187E+01  2.80787232012458E+00
(PID.TID 0000.0001)  ploadbar=  1.01093644115013E+05
 cg2d: Sum(rhs),rhsMax =  -3.53745646067723E+01  2.78468769279691E+00
(PID.TID 0000.0001)  ploadbar=  1.01092579522471E+05
 cg2d: Sum(rhs),rhsMax =  -3.56679005936787E+01  2.76074389326218E+00
(PID.TID 0000.0001)  ploadbar=  1.01091514929929E+05
 cg2d: Sum(rhs),rhsMax =  -3.59684376220393E+01  2.73671758134166E+00
(PID.TID 0000.0001)  ploadbar=  1.01091819617786E+05
 cg2d: Sum(rhs),rhsMax =  -3.62787334941561E+01  2.71243059542702E+00
(PID.TID 0000.0001)  ploadbar=  1.01092124305644E+05
 cg2d: Sum(rhs),rhsMax =  -3.65963091614828E+01  2.68808426773284E+00
(PID.TID 0000.0001)  ploadbar=  1.01092428993502E+05
 cg2d: Sum(rhs),rhsMax =  -3.69193658039835E+01  2.66381267142249E+00
(PID.TID 0000.0001)  ploadbar=  1.01092733681359E+05
 cg2d: Sum(rhs),rhsMax =  -3.72449861040116E+01  2.63982825220988E+00
(PID.TID 0000.0001)  ploadbar=  1.01093038369217E+05
 cg2d: Sum(rhs),rhsMax =  -3.75716410882536E+01  2.61622659943239E+00
(PID.TID 0000.0001)  ploadbar=  1.01093343057075E+05
 cg2d: Sum(rhs),rhsMax =  -3.78983389971295E+01  2.59306909654851E+00
(PID.TID 0000.0001)  ploadbar=  1.01092413705705E+05
 cg2d: Sum(rhs),rhsMax =  -3.82273403365188E+01  2.57018710957383E+00
(PID.TID 0000.0001)  ploadbar=  1.01091484354335E+05
 cg2d: Sum(rhs),rhsMax =  -3.85640541493433E+01  2.54721203489778E+00
(PID.TID 0000.0001)  ploadbar=  1.01090555002965E+05
 cg2d: Sum(rhs),rhsMax =  -3.89164922113750E+01  2.52363014946167E+00
(PID.TID 0000.0001)  ploadbar=  1.01089625651595E+05
 cg2d: Sum(rhs),rhsMax =  -3.92831276310950E+01  2.49957781733867E+00
(PID.TID 0000.0001)  ploadbar=  1.01088696300225E+05
 cg2d: Sum(rhs),rhsMax =  -3.96592402800727E+01  2.47537940601265E+00
(PID.TID 0000.0001)  ploadbar=  1.01087766948855E+05
 cg2d: Sum(rhs),rhsMax =  -3.99812797556721E+01  2.45496573365836E+00
(PID.TID 0000.0001)  ploadbar=  1.01085888696090E+05
 cg2d: Sum(rhs),rhsMax =  -4.02439723449300E+01  2.43847750412727E+00
(PID.TID 0000.0001)  ploadbar=  1.01084010443325E+05
 cg2d: Sum(rhs),rhsMax =  -4.04936247220559E+01  2.42298484370702E+00
(PID.TID 0000.0001)  ploadbar=  1.01082132190560E+05
 cg2d: Sum(rhs),rhsMax =  -4.07457611158229E+01  2.40752524349560E+00
(PID.TID 0000.0001)  ploadbar=  1.01080253937795E+05
 cg2d: Sum(rhs),rhsMax =  -4.10048545218416E+01  2.39182747578248E+00
(PID.TID 0000.0001)  ploadbar=  1.01078375685030E+05
 cg2d: Sum(rhs),rhsMax =  -4.12703426532147E+01  2.37593072561159E+00
(PID.TID 0000.0001)  ploadbar=  1.01076497432265E+05
 cg2d: Sum(rhs),rhsMax =  -4.15314295712836E+01  2.36043815571612E+00
(PID.TID 0000.0001)  ploadbar=  1.01075491137783E+05
 cg2d: Sum(rhs),rhsMax =  -4.17925336527990E+01  2.34508560086902E+00
(PID.TID 0000.0001)  ploadbar=  1.01074484843301E+05
 cg2d: Sum(rhs),rhsMax =  -4.20511064302899E+01  2.33000328458511E+00
(PID.TID 0000.0001)  ploadbar=  1.01073478548819E+05
 cg2d: Sum(rhs),rhsMax =  -4.23027675400227E+01  2.31540742311787E+00
(PID.TID 0000.0001)  ploadbar=  1.01072472254337E+05
 cg2d: Sum(rhs),rhsMax =  -4.25401872457630E+01  2.30166767636027E+00
(PID.TID 0000.0001)  ploadbar=  1.01071465959855E+05
 cg2d: Sum(rhs),rhsMax =  -4.27552733394805E+01  2.28918596288882E+00
(PID.TID 0000.0001)  ploadbar=  1.01070459665373E+05
 cg2d: Sum(rhs),rhsMax =  -4.29374423232699E+01  2.27866801879209E+00
(PID.TID 0000.0001)  ploadbar=  1.01070341059394E+05
 cg2d: Sum(rhs),rhsMax =  -4.30910064274383E+01  2.26983392142087E+00
(PID.TID 0000.0001)  ploadbar=  1.01070222453415E+05
 cg2d: Sum(rhs),rhsMax =  -4.32206253893468E+01  2.26239620432467E+00
(PID.TID 0000.0001)  ploadbar=  1.01070103847437E+05
 cg2d: Sum(rhs),rhsMax =  -4.33313619594120E+01  2.25605822946267E+00
(PID.TID 0000.0001)  ploadbar=  1.01069985241458E+05
 cg2d: Sum(rhs),rhsMax =  -4.34305288206084E+01  2.25041584674632E+00
(PID.TID 0000.0001)  ploadbar=  1.01069866635479E+05
 cg2d: Sum(rhs),rhsMax =  -4.35237451250043E+01  2.24516195694821E+00
(PID.TID 0000.0001)  ploadbar=  1.01069748029501E+05
 cg2d: Sum(rhs),rhsMax =  -4.36178620527809E+01  2.23993086574171E+00
(PID.TID 0000.0001)  ploadbar=  1.01068796806073E+05
 cg2d: Sum(rhs),rhsMax =  -4.37195844639019E+01  2.23437272295180E+00
(PID.TID 0000.0001)  ploadbar=  1.01067845582644E+05
 cg2d: Sum(rhs),rhsMax =  -4.38531356281110E+01  2.22725329357833E+00
(PID.TID 0000.0001)  ploadbar=  1.01066894359216E+05
 cg2d: Sum(rhs),rhsMax =  -4.40187559072687E+01  2.21858504009229E+00
(PID.TID 0000.0001)  ploadbar=  1.01065943135788E+05
 cg2d: Sum(rhs),rhsMax =  -4.42190787373075E+01  2.20826782549957E+00
(PID.TID 0000.0001)  ploadbar=  1.01064991912360E+05
 cg2d: Sum(rhs),rhsMax =  -4.44581831015143E+01  2.19614131192821E+00
(PID.TID 0000.0001)  ploadbar=  1.01064040688932E+05
 cg2d: Sum(rhs),rhsMax =  -4.47328306492752E+01  2.18241518065815E+00
(PID.TID 0000.0001)  ploadbar=  1.01063322732117E+05
 cg2d: Sum(rhs),rhsMax =  -4.50151400747898E+01  2.16848606042408E+00
(PID.TID 0000.0001)  ploadbar=  1.01062604775303E+05
 cg2d: Sum(rhs),rhsMax =  -4.53091903630216E+01  2.15416614214049E+00
(PID.TID 0000.0001)  ploadbar=  1.01061886818488E+05
 cg2d: Sum(rhs),rhsMax =  -4.56187447945014E+01  2.13928520014037E+00
(PID.TID 0000.0001)  ploadbar=  1.01061168861673E+05
 cg2d: Sum(rhs),rhsMax =  -4.59481975386665E+01  2.12365850903994E+00
(PID.TID 0000.0001)  ploadbar=  1.01060450904858E+05
 cg2d: Sum(rhs),rhsMax =  -4.63051528085471E+01  2.10696481937165E+00
(PID.TID 0000.0001)  ploadbar=  1.01059732948043E+05
 cg2d: Sum(rhs),rhsMax =  -4.66896430511657E+01  2.08926103116546E+00
(PID.TID 0000.0001)  ploadbar=  1.01058900309908E+05
 cg2d: Sum(rhs),rhsMax =  -4.70921619348397E+01  2.07101823244913E+00
(PID.TID 0000.0001)  ploadbar=  1.01058067671773E+05
 cg2d: Sum(rhs),rhsMax =  -4.75323791266332E+01  2.05141042652670E+00
(PID.TID 0000.0001)  ploadbar=  1.01057235033638E+05
 cg2d: Sum(rhs),rhsMax =  -4.78290074786658E+01  2.03820481308969E+00
(PID.TID 0000.0001)  ploadbar=  1.01056402395502E+05
 cg2d: Sum(rhs),rhsMax =  -4.76932717589479E+01  2.04345294746607E+00
(PID.TID 0000.0001)  ploadbar=  1.01055569757367E+05
 cg2d: Sum(rhs),rhsMax =  -4.75550619082526E+01  2.04876453311134E+00
(PID.TID 0000.0001)  ploadbar=  1.01054737119232E+05
 cg2d: Sum(rhs),rhsMax =  -4.74204375106099E+01  2.05400226779508E+00
(PID.TID 0000.0001)  ploadbar=  1.01054914790028E+05
 cg2d: Sum(rhs),rhsMax =  -4.72887728216511E+01  2.05918669584579E+00
(PID.TID 0000.0001)  ploadbar=  1.01055092460824E+05
 cg2d: Sum(rhs),rhsMax =  -4.71583459259830E+01  2.06438493851589E+00
(PID.TID 0000.0001)  ploadbar=  1.01055270131619E+05
 cg2d: Sum(rhs),rhsMax =  -4.70306671871854E+01  2.06952745192043E+00
(PID.TID 0000.0001)  ploadbar=  1.01055447802415E+05
 cg2d: Sum(rhs),rhsMax =  -4.69067163819540E+01  2.07456122667396E+00
(PID.TID 0000.0001)  ploadbar=  1.01055625473211E+05
 cg2d: Sum(rhs),rhsMax =  -4.67876798936856E+01  2.07942488014423E+00
(PID.TID 0000.0001)  ploadbar=  1.01055803144007E+05
 cg2d: Sum(rhs),rhsMax =  -4.66820513472435E+01  2.08371812176572E+00
(PID.TID 0000.0001)  ploadbar=  1.01056500444550E+05
 cg2d: Sum(rhs),rhsMax =  -4.65816151346416E+01  2.08779536683408E+00
(PID.TID 0000.0001)  ploadbar=  1.01057197745093E+05
 cg2d: Sum(rhs),rhsMax =  -4.64899008343477E+01  2.09148975873454E+00
(PID.TID 0000.0001)  ploadbar=  1.01057895045636E+05
 cg2d: Sum(rhs),rhsMax =  -4.64080895359511E+01  2.09473792719851E+00
(PID.TID 0000.0001)  ploadbar=  1.01058592346180E+05
 cg2d: Sum(rhs),rhsMax =  -4.63359318553827E+01  2.09754077807154E+00
(PID.TID 0000.0001)  ploadbar=  1.01059289646723E+05
 cg2d: Sum(rhs),rhsMax =  -4.62740740444727E+01  2.09985924670199E+00
(PID.TID 0000.0001)  ploadbar=  1.01059986947266E+05
 cg2d: Sum(rhs),rhsMax =  -4.62314034741556E+01  2.10133332141953E+00
(PID.TID 0000.0001)  ploadbar=  1.01061471055024E+05
 cg2d: Sum(rhs),rhsMax =  -4.62046622471977E+01  2.10210143195052E+00
(PID.TID 0000.0001)  ploadbar=  1.01062955162781E+05
 cg2d: Sum(rhs),rhsMax =  -4.61905752057750E+01  2.10230256374521E+00
(PID.TID 0000.0001)  ploadbar=  1.01064439270539E+05
 cg2d: Sum(rhs),rhsMax =  -4.61898264153380E+01  2.10189402163505E+00
(PID.TID 0000.0001)  ploadbar=  1.01065923378296E+05
 cg2d: Sum(rhs),rhsMax =  -4.62025070420932E+01  2.10086102766240E+00
(PID.TID 0000.0001)  ploadbar=  1.01067407486054E+05
 cg2d: Sum(rhs),rhsMax =  -4.62275419512237E+01  2.09924589568583E+00
(PID.TID 0000.0001)  ploadbar=  1.01068891593811E+05
 cg2d: Sum(rhs),rhsMax =  -4.62664721133237E+01  2.09697930325163E+00
(PID.TID 0000.0001)  ploadbar=  1.01068692750907E+05
 cg2d: Sum(rhs),rhsMax =  -4.63165455721711E+01  2.09417733115717E+00
(PID.TID 0000.0001)  ploadbar=  1.01068493908002E+05
 cg2d: Sum(rhs),rhsMax =  -4.63722327855677E+01  2.09108903752601E+00
(PID.TID 0000.0001)  ploadbar=  1.01068295065098E+05
 cg2d: Sum(rhs),rhsMax =  -4.64325891243627E+01  2.08775299896116E+00
(PID.TID 0000.0001)  ploadbar=  1.01068096222193E+05
 cg2d: Sum(rhs),rhsMax =  -4.64975404514557E+01  2.08416808646495E+00
(PID.TID 0000.0001)  ploadbar=  1.01067897379289E+05
 cg2d: Sum(rhs),rhsMax =  -4.65663100616227E+01  2.08036692174806E+00
(PID.TID 0000.0001)  ploadbar=  1.01067698536384E+05
 cg2d: Sum(rhs),rhsMax =  -4.66383769115760E+01  2.07651472868330E+00
(PID.TID 0000.0001)  ploadbar=  1.01068368803043E+05
 cg2d: Sum(rhs),rhsMax =  -4.67197165914136E+01  2.07234467828418E+00
(PID.TID 0000.0001)  ploadbar=  1.01069039069702E+05
 cg2d: Sum(rhs),rhsMax =  -4.68061382205081E+01  2.06804173739593E+00
(PID.TID 0000.0001)  ploadbar=  1.01069709336361E+05
 cg2d: Sum(rhs),rhsMax =  -4.68967588996613E+01  2.06364408420968E+00
(PID.TID 0000.0001)  ploadbar=  1.01070379603020E+05
 cg2d: Sum(rhs),rhsMax =  -4.69919145734058E+01  2.05912809251587E+00
(PID.TID 0000.0001)  ploadbar=  1.01071049869679E+05
 cg2d: Sum(rhs),rhsMax =  -4.70916258210707E+01  2.05448953194270E+00
(PID.TID 0000.0001)  ploadbar=  1.01071720136338E+05
 cg2d: Sum(rhs),rhsMax =  -4.71821190597919E+01  2.05031673284017E+00
(PID.TID 0000.0001)  ploadbar=  1.01072942513307E+05
 cg2d: Sum(rhs),rhsMax =  -4.72772855633579E+01  2.04600057037809E+00
(PID.TID 0000.0001)  ploadbar=  1.01074164890276E+05
 cg2d: Sum(rhs),rhsMax =  -4.73787591839124E+01  2.04146773870569E+00
(PID.TID 0000.0001)  ploadbar=  1.01075387267245E+05
 cg2d: Sum(rhs),rhsMax =  -4.74844331819987E+01  2.03680444889363E+00
(PID.TID 0000.0001)  ploadbar=  1.01076609644214E+05
 cg2d: Sum(rhs),rhsMax =  -4.75937216847625E+01  2.03202976583601E+00
(PID.TID 0000.0001)  ploadbar=  1.01077832021183E+05
 cg2d: Sum(rhs),rhsMax =  -4.77065124178154E+01  2.02713896599805E+00
(PID.TID 0000.0001)  ploadbar=  1.01079054398153E+05
 cg2d: Sum(rhs),rhsMax =  -4.78240154205737E+01  2.02205049726199E+00
(PID.TID 0000.0001)  ploadbar=  1.01078975715657E+05
 cg2d: Sum(rhs),rhsMax =  -4.79447608300857E+01  2.01682463131522E+00
(PID.TID 0000.0001)  ploadbar=  1.01078897033161E+05
 cg2d: Sum(rhs),rhsMax =  -4.80695464638103E+01  2.01142445124896E+00
(PID.TID 0000.0001)  ploadbar=  1.01078818350665E+05
 cg2d: Sum(rhs),rhsMax =  -4.81960188649556E+01  2.00594599538089E+00
(PID.TID 0000.0001)  ploadbar=  1.01078739668169E+05
 cg2d: Sum(rhs),rhsMax =  -4.83222056565707E+01  2.00046600274536E+00
(PID.TID 0000.0001)  ploadbar=  1.01078660985673E+05
 cg2d: Sum(rhs),rhsMax =  -4.84468513878315E+01  1.99503015679668E+00
(PID.TID 0000.0001)  ploadbar=  1.01078582303177E+05
 cg2d: Sum(rhs),rhsMax =  -4.85689625632768E+01  1.98968403352107E+00
(PID.TID 0000.0001)  ploadbar=  1.01078540943981E+05
 cg2d: Sum(rhs),rhsMax =  -4.86898657834777E+01  1.98436559700276E+00
(PID.TID 0000.0001)  ploadbar=  1.01078499584785E+05
 cg2d: Sum(rhs),rhsMax =  -4.88098539645184E+01  1.97905793657911E+00
(PID.TID 0000.0001)  ploadbar=  1.01078458225589E+05
 cg2d: Sum(rhs),rhsMax =  -4.89284297108686E+01  1.97377857893458E+00
(PID.TID 0000.0001)  ploadbar=  1.01078416866393E+05
 cg2d: Sum(rhs),rhsMax =  -4.90446797923712E+01  1.96856108630727E+00
(PID.TID 0000.0001)  ploadbar=  1.01078375507197E+05
 cg2d: Sum(rhs),rhsMax =  -4.91579079853669E+01  1.96342942252785E+00
(PID.TID 0000.0001)  ploadbar=  1.01078334148001E+05
 cg2d: Sum(rhs),rhsMax =  -4.92795511168138E+01  1.95808035631134E+00
(PID.TID 0000.0001)  ploadbar=  1.01079350392767E+05
 cg2d: Sum(rhs),rhsMax =  -4.93998336439727E+01  1.95290094201624E+00
(PID.TID 0000.0001)  ploadbar=  1.01080366637532E+05
 cg2d: Sum(rhs),rhsMax =  -4.95184355474923E+01  1.94789815999670E+00
(PID.TID 0000.0001)  ploadbar=  1.01081382882298E+05
 cg2d: Sum(rhs),rhsMax =  -4.96370707787019E+01  1.94300004084759E+00
(PID.TID 0000.0001)  ploadbar=  1.01082399127064E+05
 cg2d: Sum(rhs),rhsMax =  -4.97557561634946E+01  1.93819995192231E+00
(PID.TID 0000.0001)  ploadbar=  1.01083415371829E+05
 cg2d: Sum(rhs),rhsMax =  -4.98738813663252E+01  1.93351429365646E+00
(PID.TID 0000.0001)  ploadbar=  1.01084431616595E+05
 cg2d: Sum(rhs),rhsMax =  -4.99942274530456E+01  1.92878656813767E+00
(PID.TID 0000.0001)  ploadbar=  1.01084421160623E+05
 cg2d: Sum(rhs),rhsMax =  -5.01139595279434E+01  1.92412331076589E+00
(PID.TID 0000.0001)  ploadbar=  1.01084410704651E+05
 cg2d: Sum(rhs),rhsMax =  -5.02292644292903E+01  1.91966635001409E+00
(PID.TID 0000.0001)  ploadbar=  1.01084400248679E+05
 cg2d: Sum(rhs),rhsMax =  -5.03420702581495E+01  1.91533240072948E+00
(PID.TID 0000.0001)  ploadbar=  1.01084389792707E+05
 cg2d: Sum(rhs),rhsMax =  -5.04546189403930E+01  1.91103198834397E+00
(PID.TID 0000.0001)  ploadbar=  1.01084379336735E+05
 cg2d: Sum(rhs),rhsMax =  -5.05672970895255E+01  1.90674536491103E+00
(PID.TID 0000.0001)  ploadbar=  1.01084368880763E+05
 cg2d: Sum(rhs),rhsMax =  -5.06773565695593E+01  1.90256131228764E+00
(PID.TID 0000.0001)  ploadbar=  1.01084777539960E+05
 cg2d: Sum(rhs),rhsMax =  -5.07874155847902E+01  1.89837679720867E+00
(PID.TID 0000.0001)  ploadbar=  1.01085186199157E+05
 cg2d: Sum(rhs),rhsMax =  -5.08950674703444E+01  1.89427888792585E+00
(PID.TID 0000.0001)  ploadbar=  1.01085594858354E+05
 cg2d: Sum(rhs),rhsMax =  -5.09999139863596E+01  1.89027829521335E+00
(PID.TID 0000.0001)  ploadbar=  1.01086003517551E+05
 cg2d: Sum(rhs),rhsMax =  -5.11015881311552E+01  1.88638204713574E+00
(PID.TID 0000.0001)  ploadbar=  1.01086412176749E+05
 cg2d: Sum(rhs),rhsMax =  -5.11998208079742E+01  1.88259524474629E+00
(PID.TID 0000.0001)  ploadbar=  1.01086820835946E+05
 cg2d: Sum(rhs),rhsMax =  -5.12939447664950E+01  1.87891933641914E+00
(PID.TID 0000.0001)  ploadbar=  1.01086353845880E+05
 cg2d: Sum(rhs),rhsMax =  -5.13857181121397E+01  1.87528629077881E+00
(PID.TID 0000.0001)  ploadbar=  1.01085886855814E+05
 cg2d: Sum(rhs),rhsMax =  -5.14745090803508E+01  1.87171637703727E+00
(PID.TID 0000.0001)  ploadbar=  1.01085419865748E+05
 cg2d: Sum(rhs),rhsMax =  -5.15602198048996E+01  1.86820721388584E+00
(PID.TID 0000.0001)  ploadbar=  1.01084952875683E+05
 cg2d: Sum(rhs),rhsMax =  -5.16381241332619E+01  1.86492298230173E+00
(PID.TID 0000.0001)  ploadbar=  1.01084485885617E+05
 cg2d: Sum(rhs),rhsMax =  -5.17042631139798E+01  1.86200259578851E+00
(PID.TID 0000.0001)  ploadbar=  1.01084018895551E+05
 cg2d: Sum(rhs),rhsMax =  -5.17657838788223E+01  1.85933827433276E+00
(PID.TID 0000.0001)  ploadbar=  1.01082179717137E+05
 cg2d: Sum(rhs),rhsMax =  -5.18182898755195E+01  1.85707974281135E+00
(PID.TID 0000.0001)  ploadbar=  1.01080340538722E+05
 cg2d: Sum(rhs),rhsMax =  -5.18654548641234E+01  1.85508681734441E+00
(PID.TID 0000.0001)  ploadbar=  1.01078501360308E+05
 cg2d: Sum(rhs),rhsMax =  -5.19090558578129E+01  1.85328984830926E+00
(PID.TID 0000.0001)  ploadbar=  1.01076662181893E+05
 cg2d: Sum(rhs),rhsMax =  -5.19491916007762E+01  1.85168134944239E+00
(PID.TID 0000.0001)  ploadbar=  1.01074823003479E+05
 cg2d: Sum(rhs),rhsMax =  -5.19862450823192E+01  1.85024415454967E+00
(PID.TID 0000.0001)  ploadbar=  1.01072983825064E+05
 cg2d: Sum(rhs),rhsMax =  -5.20154481146393E+01  1.84910983988182E+00
(PID.TID 0000.0001)  ploadbar=  1.01071853264084E+05
 cg2d: Sum(rhs),rhsMax =  -5.20368692307541E+01  1.84827079519106E+00
(PID.TID 0000.0001)  ploadbar=  1.01070722703104E+05
 cg2d: Sum(rhs),rhsMax =  -5.20493052592495E+01  1.84776546495475E+00
(PID.TID 0000.0001)  ploadbar=  1.01069592142123E+05
 cg2d: Sum(rhs),rhsMax =  -5.20533705607233E+01  1.84756762836535E+00
(PID.TID 0000.0001)  ploadbar=  1.01068461581143E+05
 cg2d: Sum(rhs),rhsMax =  -5.20494474091441E+01  1.84765860561313E+00
(PID.TID 0000.0001)  ploadbar=  1.01067331020163E+05
 cg2d: Sum(rhs),rhsMax =  -5.20376741045950E+01  1.84803077901787E+00
(PID.TID 0000.0001)  ploadbar=  1.01066200459182E+05
 cg2d: Sum(rhs),rhsMax =  -5.20129517841082E+01  1.84886428174663E+00
(PID.TID 0000.0001)  ploadbar=  1.01066924826054E+05
 cg2d: Sum(rhs),rhsMax =  -5.19795192451956E+01  1.85000627178078E+00
(PID.TID 0000.0001)  ploadbar=  1.01067649192925E+05
 cg2d: Sum(rhs),rhsMax =  -5.19348502068729E+01  1.85154241384353E+00
(PID.TID 0000.0001)  ploadbar=  1.01068373559797E+05
 cg2d: Sum(rhs),rhsMax =  -5.18780969421039E+01  1.85349927415873E+00
(PID.TID 0000.0001)  ploadbar=  1.01069097926669E+05
 cg2d: Sum(rhs),rhsMax =  -5.18090153341156E+01  1.85588246334809E+00
(PID.TID 0000.0001)  ploadbar=  1.01069822293540E+05
 cg2d: Sum(rhs),rhsMax =  -5.17278437745733E+01  1.85868125182952E+00
(PID.TID 0000.0001)  ploadbar=  1.01070546660412E+05
 cg2d: Sum(rhs),rhsMax =  -5.16429079505059E+01  1.86158204276829E+00
(PID.TID 0000.0001)  ploadbar=  1.01069638644633E+05
 cg2d: Sum(rhs),rhsMax =  -5.15520973056633E+01  1.86465910592957E+00
(PID.TID 0000.0001)  ploadbar=  1.01068730628854E+05
 cg2d: Sum(rhs),rhsMax =  -5.14550834289693E+01  1.86791935391358E+00
(PID.TID 0000.0001)  ploadbar=  1.01067822613075E+05
 cg2d: Sum(rhs),rhsMax =  -5.13571000276090E+01  1.87116855296390E+00
(PID.TID 0000.0001)  ploadbar=  1.01066914597296E+05
 cg2d: Sum(rhs),rhsMax =  -5.12620289662967E+01  1.87426256919027E+00
(PID.TID 0000.0001)  ploadbar=  1.01066006581517E+05
 cg2d: Sum(rhs),rhsMax =  -5.11713777638968E+01  1.87713799778939E+00
(PID.TID 0000.0001)  ploadbar=  1.01065098565738E+05
 cg2d: Sum(rhs),rhsMax =  -5.10700060126267E+01  1.88046802473971E+00
(PID.TID 0000.0001)  ploadbar=  1.01064009867662E+05
 cg2d: Sum(rhs),rhsMax =  -5.09671685568322E+01  1.88390852452293E+00
(PID.TID 0000.0001)  ploadbar=  1.01062921169586E+05
 cg2d: Sum(rhs),rhsMax =  -5.08646689252355E+01  1.88738847660913E+00
(PID.TID 0000.0001)  ploadbar=  1.01061832471510E+05
 cg2d: Sum(rhs),rhsMax =  -5.07572312828233E+01  1.89109883378279E+00
(PID.TID 0000.0001)  ploadbar=  1.01060743773435E+05
 cg2d: Sum(rhs),rhsMax =  -5.06414300475440E+01  1.89516424524038E+00
(PID.TID 0000.0001)  ploadbar=  1.01059655075359E+05
 cg2d: Sum(rhs),rhsMax =  -5.05153566789841E+01  1.89965338052801E+00
(PID.TID 0000.0001)  ploadbar=  1.01058566377283E+05
 cg2d: Sum(rhs),rhsMax =  -5.03692203745841E+01  1.90489307963741E+00
(PID.TID 0000.0001)  ploadbar=  1.01059428007307E+05
 cg2d: Sum(rhs),rhsMax =  -5.02141618164167E+01  1.91046635912481E+00
(PID.TID 0000.0001)  ploadbar=  1.01060289637331E+05
 cg2d: Sum(rhs),rhsMax =  -5.00464052362187E+01  1.91652097321871E+00
(PID.TID 0000.0001)  ploadbar=  1.01061151267355E+05
 cg2d: Sum(rhs),rhsMax =  -4.98646345166988E+01  1.92311067668048E+00
(PID.TID 0000.0001)  ploadbar=  1.01062012897379E+05
 cg2d: Sum(rhs),rhsMax =  -4.96712999222231E+01  1.93014819901349E+00
(PID.TID 0000.0001)  ploadbar=  1.01062874527403E+05
 cg2d: Sum(rhs),rhsMax =  -4.94684845419046E+01  1.93755683441066E+00
(PID.TID 0000.0001)  ploadbar=  1.01063736157427E+05
 cg2d: Sum(rhs),rhsMax =  -4.92295309765682E+01  1.94646751091274E+00
(PID.TID 0000.0001)  ploadbar=  1.01065331110463E+05
 cg2d: Sum(rhs),rhsMax =  -4.89848218838511E+01  1.95570564795518E+00
(PID.TID 0000.0001)  ploadbar=  1.01066926063499E+05
 cg2d: Sum(rhs),rhsMax =  -4.87536192032795E+01  1.96449951823314E+00
(PID.TID 0000.0001)  ploadbar=  1.01068521016535E+05
 cg2d: Sum(rhs),rhsMax =  -4.85448424355188E+01  1.97246617972795E+00
(PID.TID 0000.0001)  ploadbar=  1.01070115969571E+05
 cg2d: Sum(rhs),rhsMax =  -4.83760546035544E+01  1.97885754797706E+00
(PID.TID 0000.0001)  ploadbar=  1.01071710922607E+05
 cg2d: Sum(rhs),rhsMax =  -4.82643181928739E+01  1.98293277706218E+00
(PID.TID 0000.0001)  ploadbar=  1.01073305875643E+05
 cg2d: Sum(rhs),rhsMax =  -4.82821045927568E+01  1.98163523510229E+00
(PID.TID 0000.0001)  ploadbar=  1.01073857102402E+05
 cg2d: Sum(rhs),rhsMax =  -4.83546943258126E+01  1.97803452830499E+00
(PID.TID 0000.0001)  ploadbar=  1.01074408329161E+05
 cg2d: Sum(rhs),rhsMax =  -4.84799487181585E+01  1.97223848165824E+00
(PID.TID 0000.0001)  ploadbar=  1.01074959555920E+05
 cg2d: Sum(rhs),rhsMax =  -4.86478706195754E+01  1.96468430694190E+00
(PID.TID 0000.0001)  ploadbar=  1.01075510782680E+05
 cg2d: Sum(rhs),rhsMax =  -4.88587524501242E+01  1.95539564860302E+00
(PID.TID 0000.0001)  ploadbar=  1.01076062009439E+05
 cg2d: Sum(rhs),rhsMax =  -4.91153395941383E+01  1.94430747309598E+00
(PID.TID 0000.0001)  ploadbar=  1.01076613236198E+05
 cg2d: Sum(rhs),rhsMax =  -4.94356816770656E+01  1.93092645448612E+00
(PID.TID 0000.0001)  ploadbar=  1.01077637433040E+05
 cg2d: Sum(rhs),rhsMax =  -4.97648810044400E+01  1.91745555455351E+00
(PID.TID 0000.0001)  ploadbar=  1.01078661629883E+05
 cg2d: Sum(rhs),rhsMax =  -5.00855602540930E+01  1.90456171123882E+00
(PID.TID 0000.0001)  ploadbar=  1.01079685826725E+05
 cg2d: Sum(rhs),rhsMax =  -5.03920084974523E+01  1.89243867035130E+00
(PID.TID 0000.0001)  ploadbar=  1.01080710023567E+05
 cg2d: Sum(rhs),rhsMax =  -5.06755445137835E+01  1.88137856554123E+00
(PID.TID 0000.0001)  ploadbar=  1.01081734220409E+05
 cg2d: Sum(rhs),rhsMax =  -5.09345520561822E+01  1.87140515887346E+00
(PID.TID 0000.0001)  ploadbar=  1.01082758417252E+05
 cg2d: Sum(rhs),rhsMax =  -5.11432869696494E+01  1.86336693454849E+00
(PID.TID 0000.0001)  ploadbar=  1.01083109795349E+05
 cg2d: Sum(rhs),rhsMax =  -5.13425174659757E+01  1.85574094591593E+00
(PID.TID 0000.0001)      cg2d_init_res =   1.80368547330481E-01
(PID.TID 0000.0001)      cg2d_iters(min,last) =      -1     132
(PID.TID 0000.0001)      cg2d_last_res =   9.47913172995047E-08
(PID.TID 0000.0001) // =======================================================
(PID.TID 0000.0001) // Begin MONITOR dynamic field statistics
(PID.TID 0000.0001) // =======================================================
(PID.TID 0000.0001) %MON time_tsnumber                =                 10512
(PID.TID 0000.0001) %MON time_secondsf                =   3.7843200000000E+07
(PID.TID 0000.0001) %MON dynstat_eta_max              =   1.0910248987836E+00
(PID.TID 0000.0001) %MON dynstat_eta_min              =  -6.6679146844957E+00
(PID.TID 0000.0001) %MON dynstat_eta_mean             =   4.8223367493444E-02
(PID.TID 0000.0001) %MON dynstat_eta_sd               =   7.4796212851044E-01
(PID.TID 0000.0001) %MON dynstat_eta_del2             =   2.1296947005430E-04
(PID.TID 0000.0001) %MON dynstat_uvel_max             =   1.3065236313437E+00
(PID.TID 0000.0001) %MON dynstat_uvel_min             =  -7.9641930187400E-01
(PID.TID 0000.0001) %MON dynstat_uvel_mean            =   1.4378884258175E-03
(PID.TID 0000.0001) %MON dynstat_uvel_sd              =   2.0985687399505E-02
(PID.TID 0000.0001) %MON dynstat_uvel_del2            =   9.0620071703805E-06
(PID.TID 0000.0001) %MON dynstat_vvel_max             =   1.1682911186959E+00
(PID.TID 0000.0001) %MON dynstat_vvel_min             =  -9.3635186355282E-01
(PID.TID 0000.0001) %MON dynstat_vvel_mean            =   1.1496125739330E-03
(PID.TID 0000.0001) %MON dynstat_vvel_sd              =   2.2056688395991E-02
(PID.TID 0000.0001) %MON dynstat_vvel_del2            =   9.3119335747297E-06
(PID.TID 0000.0001) %MON dynstat_wvel_max             =   4.8206263348044E-04
(PID.TID 0000.0001) %MON dynstat_wvel_min             =  -1.0081918476273E-03
(PID.TID 0000.0001) %MON dynstat_wvel_mean            =   1.4295911060927E-08
(PID.TID 0000.0001) %MON dynstat_wvel_sd              =   2.3208374818005E-05
(PID.TID 0000.0001) %MON dynstat_wvel_del2            =   1.7521863400102E-08
(PID.TID 0000.0001) %MON dynstat_theta_max            =   3.0908787351365E+01
(PID.TID 0000.0001) %MON dynstat_theta_min            =  -1.9726910072346E+00
(PID.TID 0000.0001) %MON dynstat_theta_mean           =   3.5858227759827E+00
(PID.TID 0000.0001) %MON dynstat_theta_sd             =   4.4348685553375E+00
(PID.TID 0000.0001) %MON dynstat_theta_del2           =   8.9377107854208E-05
(PID.TID 0000.0001) %MON dynstat_salt_max             =   4.0645378628195E+01
(PID.TID 0000.0001) %MON dynstat_salt_min             =   2.4774070920185E+01
(PID.TID 0000.0001) %MON dynstat_salt_mean            =   3.4727188802555E+01
(PID.TID 0000.0001) %MON dynstat_salt_sd              =   3.7614330303426E-01
(PID.TID 0000.0001) %MON dynstat_salt_del2            =   1.9866077156774E-05
(PID.TID 0000.0001) %MON dynstat_sst_max              =   3.0908787351365E+01
(PID.TID 0000.0001) %MON dynstat_sst_min              =  -1.9606697710959E+00
(PID.TID 0000.0001) %MON dynstat_sst_mean             =   1.8427462882408E+01
(PID.TID 0000.0001) %MON dynstat_sst_sd               =   1.0180498775477E+01
(PID.TID 0000.0001) %MON dynstat_sst_del2             =   6.7581278511726E-04
(PID.TID 0000.0001) %MON dynstat_sss_max              =   3.9933674317884E+01
(PID.TID 0000.0001) %MON dynstat_sss_min              =   2.4774070920185E+01
(PID.TID 0000.0001) %MON dynstat_sss_mean             =   3.4754604376787E+01
(PID.TID 0000.0001) %MON dynstat_sss_sd               =   1.1591519203839E+00
(PID.TID 0000.0001) %MON dynstat_sss_del2             =   3.1160865512729E-04
(PID.TID 0000.0001) %MON forcing_qnet_max             =   1.6187764480514E+03
(PID.TID 0000.0001) %MON forcing_qnet_min             =  -5.7976106508214E+02
(PID.TID 0000.0001) %MON forcing_qnet_mean            =   1.6963719943904E+01
(PID.TID 0000.0001) %MON forcing_qnet_sd              =   2.0025820988108E+02
(PID.TID 0000.0001) %MON forcing_qnet_del2            =   1.0539411088542E-01
(PID.TID 0000.0001) %MON forcing_qsw_max              =   6.0419003324669E+01
(PID.TID 0000.0001) %MON forcing_qsw_min              =  -6.3871023562478E+02
(PID.TID 0000.0001) %MON forcing_qsw_mean             =  -1.4833961552988E+02
(PID.TID 0000.0001) %MON forcing_qsw_sd               =   1.6475191420827E+02
(PID.TID 0000.0001) %MON forcing_qsw_del2             =   5.1736593803101E-02
(PID.TID 0000.0001) %MON forcing_empmr_max            =   1.4182516673119E-03
(PID.TID 0000.0001) %MON forcing_empmr_min            =  -4.2998305274881E-03
(PID.TID 0000.0001) %MON forcing_empmr_mean           =   2.9364848431962E-06
(PID.TID 0000.0001) %MON forcing_empmr_sd             =   1.0396395413633E-04
(PID.TID 0000.0001) %MON forcing_empmr_del2           =   2.8208109182614E-07
(PID.TID 0000.0001) %MON forcing_fu_max               =   1.2855952599018E+00
(PID.TID 0000.0001) %MON forcing_fu_min               =  -1.4368111093839E+00
(PID.TID 0000.0001) %MON forcing_fu_mean              =   1.1801028960914E-02
(PID.TID 0000.0001) %MON forcing_fu_sd                =   1.3840648383295E-01
(PID.TID 0000.0001) %MON forcing_fu_del2              =   7.4670238433566E-05
(PID.TID 0000.0001) %MON forcing_fv_max               =   1.7922726074855E+00
(PID.TID 0000.0001) %MON forcing_fv_min               =  -1.3469048854509E+00
(PID.TID 0000.0001) %MON forcing_fv_mean              =   4.2621497755448E-03
(PID.TID 0000.0001) %MON forcing_fv_sd                =   1.4370877652766E-01
(PID.TID 0000.0001) %MON forcing_fv_del2              =   8.0013199721030E-05
(PID.TID 0000.0001) %MON trAdv_CFL_u_max              =   5.3760542963738E-02
(PID.TID 0000.0001) %MON trAdv_CFL_v_max              =   6.0465958808592E-02
(PID.TID 0000.0001) %MON trAdv_CFL_w_max              =   1.6704746790678E-01
(PID.TID 0000.0001) %MON advcfl_uvel_max              =   5.6960849096284E-02
(PID.TID 0000.0001) %MON advcfl_vvel_max              =   5.4933678249619E-02
(PID.TID 0000.0001) %MON advcfl_wvel_max              =   1.6853507505636E-01
(PID.TID 0000.0001) %MON advcfl_W_hf_max              =   1.7031307723938E-01
(PID.TID 0000.0001) %MON pe_b_mean                    =   1.6062744113434E-03
(PID.TID 0000.0001) %MON ke_max                       =   8.4064335272999E-01
(PID.TID 0000.0001) %MON ke_mean                      =   4.4857930550855E-04
(PID.TID 0000.0001) %MON ke_vol                       =   1.3350151452513E+18
(PID.TID 0000.0001) %MON vort_r_min                   =  -2.9412013921726E-05
(PID.TID 0000.0001) %MON vort_r_max                   =   1.6968040042788E-05
(PID.TID 0000.0001) %MON vort_a_mean                  =  -1.9727725668894E-05
(PID.TID 0000.0001) %MON vort_a_sd                    =   7.4543022083853E-05
(PID.TID 0000.0001) %MON vort_p_mean                  =  -2.1760044174265E-05
(PID.TID 0000.0001) %MON vort_p_sd                    =   9.7244105021967E-05
(PID.TID 0000.0001) %MON surfExpan_theta_mean         =   2.1814795073147E-07
(PID.TID 0000.0001) %MON surfExpan_salt_mean          =   1.4070312287221E-08
(PID.TID 0000.0001) // =======================================================
(PID.TID 0000.0001) // End MONITOR dynamic field statistics
(PID.TID 0000.0001) // =======================================================
(PID.TID 0000.0001)  ploadbar=  1.01083461173447E+05
(PID.TID 0000.0001) %SBO sbo_mass                     =   1.3737568003736E+21
(PID.TID 0000.0001) %SBO sbo_mass_fw                  =   4.3985003061453E+16
(PID.TID 0000.0001) %SBO sbo_zoamc                    =   1.2770701733101E+25
(PID.TID 0000.0001) %SBO sbo_zoamp                    =   2.9276642985050E+30
(PID.TID 0000.0001) // =======================================================
(PID.TID 0000.0001) // Begin MONITOR SEAICE statistics
(PID.TID 0000.0001) // =======================================================
(PID.TID 0000.0001) %MON seaice_tsnumber              =                 10512
(PID.TID 0000.0001) %MON seaice_time_sec              =   3.7843200000000E+07
(PID.TID 0000.0001) %MON seaice_uice_max              =   4.0000000000000E-01
(PID.TID 0000.0001) %MON seaice_uice_min              =  -4.0000000000000E-01
(PID.TID 0000.0001) %MON seaice_uice_mean             =   1.2963453602808E-02
(PID.TID 0000.0001) %MON seaice_uice_sd               =   1.7487674145910E-01
(PID.TID 0000.0001) %MON seaice_uice_del2             =   1.4299356979935E-04
(PID.TID 0000.0001) %MON seaice_vice_max              =   4.0000000000000E-01
(PID.TID 0000.0001) %MON seaice_vice_min              =  -4.0000000000000E-01
(PID.TID 0000.0001) %MON seaice_vice_mean             =  -7.6506856976785E-03
(PID.TID 0000.0001) %MON seaice_vice_sd               =   1.7645226415935E-01
(PID.TID 0000.0001) %MON seaice_vice_del2             =   1.4540238349020E-04
(PID.TID 0000.0001) %MON seaice_area_max              =   9.7000000000000E-01
(PID.TID 0000.0001) %MON seaice_area_min              =   0.0000000000000E+00
(PID.TID 0000.0001) %MON seaice_area_mean             =   5.1876894469988E-02
(PID.TID 0000.0001) %MON seaice_area_sd               =   2.1120148862429E-01
(PID.TID 0000.0001) %MON seaice_area_del2             =   2.2679652852232E-04
(PID.TID 0000.0001) %MON seaice_heff_max              =   6.8113104249227E+00
(PID.TID 0000.0001) %MON seaice_heff_min              =   0.0000000000000E+00
(PID.TID 0000.0001) %MON seaice_heff_mean             =   7.6955111519771E-02
(PID.TID 0000.0001) %MON seaice_heff_sd               =   3.8819428472970E-01
(PID.TID 0000.0001) %MON seaice_heff_del2             =   2.1506419871290E-04
(PID.TID 0000.0001) %MON seaice_hsnow_max             =   1.0939982842758E+00
(PID.TID 0000.0001) %MON seaice_hsnow_min             =  -7.1291266006472E-05
(PID.TID 0000.0001) %MON seaice_hsnow_mean            =   9.7193440680928E-03
(PID.TID 0000.0001) %MON seaice_hsnow_sd              =   5.0290919615232E-02
(PID.TID 0000.0001) %MON seaice_hsnow_del2            =   4.7934239124605E-05
(PID.TID 0000.0001) // =======================================================
(PID.TID 0000.0001) // End MONITOR SEAICE statistics
(PID.TID 0000.0001) // =======================================================
(PID.TID 0000.0001) // =======================================================
(PID.TID 0000.0001) // Begin MONITOR EXF statistics
(PID.TID 0000.0001) // =======================================================
(PID.TID 0000.0001) %MON exf_tsnumber                 =                 10512
(PID.TID 0000.0001) %MON exf_time_sec                 =   3.7843200000000E+07
(PID.TID 0000.0001) %MON exf_ustress_max              =   1.3173592090607E+00
(PID.TID 0000.0001) %MON exf_ustress_min              =  -1.6459183692932E+00
(PID.TID 0000.0001) %MON exf_ustress_mean             =   1.1364943364971E-02
(PID.TID 0000.0001) %MON exf_ustress_sd               =   1.3680485316432E-01
(PID.TID 0000.0001) %MON exf_ustress_del2             =   9.6399659763053E-05
(PID.TID 0000.0001) %MON exf_vstress_max              =   1.7689213156700E+00
(PID.TID 0000.0001) %MON exf_vstress_min              =  -2.7178792953491E+00
(PID.TID 0000.0001) %MON exf_vstress_mean             =   5.1167831079845E-03
(PID.TID 0000.0001) %MON exf_vstress_sd               =   1.4428809823895E-01
(PID.TID 0000.0001) %MON exf_vstress_del2             =   1.0633712081367E-04
(PID.TID 0000.0001) %MON exf_hflux_max                =   1.4818189077142E+03
(PID.TID 0000.0001) %MON exf_hflux_min                =  -5.6682775144520E+02
(PID.TID 0000.0001) %MON exf_hflux_mean               =   3.4938003633084E+01
(PID.TID 0000.0001) %MON exf_hflux_sd                 =   2.1978840087545E+02
(PID.TID 0000.0001) %MON exf_hflux_del2               =   5.2542589842237E-01
(PID.TID 0000.0001) %MON exf_sflux_max                =   4.0250195102416E-07
(PID.TID 0000.0001) %MON exf_sflux_min                =  -4.2679292415226E-06
(PID.TID 0000.0001) %MON exf_sflux_mean               =   1.0342829661112E-09
(PID.TID 0000.0001) %MON exf_sflux_sd                 =   9.7211723293167E-08
(PID.TID 0000.0001) %MON exf_sflux_del2               =   2.6463314135674E-10
(PID.TID 0000.0001) %MON exf_wspeed_max               =   2.3972170829773E+01
(PID.TID 0000.0001) %MON exf_wspeed_min               =   4.0680915117264E-01
(PID.TID 0000.0001) %MON exf_wspeed_mean              =   7.0009154098237E+00
(PID.TID 0000.0001) %MON exf_wspeed_sd                =   3.5892124374914E+00
(PID.TID 0000.0001) %MON exf_wspeed_del2              =   1.7384659168334E-02
(PID.TID 0000.0001) %MON exf_atemp_max                =   3.0672969284058E+02
(PID.TID 0000.0001) %MON exf_atemp_min                =   2.2567059745789E+02
(PID.TID 0000.0001) %MON exf_atemp_mean               =   2.8920474784090E+02
(PID.TID 0000.0001) %MON exf_atemp_sd                 =   1.2892238005608E+01
(PID.TID 0000.0001) %MON exf_atemp_del2               =   3.8073539783077E-02
(PID.TID 0000.0001) %MON exf_aqh_max                  =   2.1373907104135E-02
(PID.TID 0000.0001) %MON exf_aqh_min                  =  -1.1093865032308E-04
(PID.TID 0000.0001) %MON exf_aqh_mean                 =   1.1012636537463E-02
(PID.TID 0000.0001) %MON exf_aqh_sd                   =   5.7680898893743E-03
(PID.TID 0000.0001) %MON exf_aqh_del2                 =   2.0981427630260E-05
(PID.TID 0000.0001) %MON exf_lwflux_max               =   2.2857505443110E+02
(PID.TID 0000.0001) %MON exf_lwflux_min               =  -3.0544126256902E+01
(PID.TID 0000.0001) %MON exf_lwflux_mean              =   4.8456543582179E+01
(PID.TID 0000.0001) %MON exf_lwflux_sd                =   2.8794469953369E+01
(PID.TID 0000.0001) %MON exf_lwflux_del2              =   1.3186909048312E-01
(PID.TID 0000.0001) %MON exf_evap_max                 =   4.1780407573914E-07
(PID.TID 0000.0001) %MON exf_evap_min                 =  -1.2033171878385E-07
(PID.TID 0000.0001) %MON exf_evap_mean                =   4.4134667338365E-08
(PID.TID 0000.0001) %MON exf_evap_sd                  =   3.5033154280417E-08
(PID.TID 0000.0001) %MON exf_evap_del2                =   1.0195272555946E-10
(PID.TID 0000.0001) %MON exf_precip_max               =   2.4043725375122E-06
(PID.TID 0000.0001) %MON exf_precip_min               =  -2.4749696514448E-08
(PID.TID 0000.0001) %MON exf_precip_mean              =   3.9473109763900E-08
(PID.TID 0000.0001) %MON exf_precip_sd                =   7.3878504505014E-08
(PID.TID 0000.0001) %MON exf_precip_del2              =   2.2085350622865E-10
(PID.TID 0000.0001) %MON exf_swflux_max               =   1.1805767162377E+02
(PID.TID 0000.0001) %MON exf_swflux_min               =  -5.7702978812058E+02
(PID.TID 0000.0001) %MON exf_swflux_mean              =  -1.5432302804070E+02
(PID.TID 0000.0001) %MON exf_swflux_sd                =   1.5938996466642E+02
(PID.TID 0000.0001) %MON exf_swflux_del2              =   3.8996011005913E-01
(PID.TID 0000.0001) %MON exf_swdown_max               =   6.2191586303711E+02
(PID.TID 0000.0001) %MON exf_swdown_min               =  -1.4900189971924E+02
(PID.TID 0000.0001) %MON exf_swdown_mean              =   1.6735082014819E+02
(PID.TID 0000.0001) %MON exf_swdown_sd                =   1.7230504665608E+02
(PID.TID 0000.0001) %MON exf_swdown_del2              =   4.2360055193041E-01
(PID.TID 0000.0001) %MON exf_lwdown_max               =   4.5584849548340E+02
(PID.TID 0000.0001) %MON exf_lwdown_min               =   7.1088562011719E+01
(PID.TID 0000.0001) %MON exf_lwdown_mean              =   3.6281893782123E+02
(PID.TID 0000.0001) %MON exf_lwdown_sd                =   6.5108446153490E+01
(PID.TID 0000.0001) %MON exf_lwdown_del2              =   6.9421557341712E-01
(PID.TID 0000.0001) %MON exf_apressure_max            =   1.0461806250000E+05
(PID.TID 0000.0001) %MON exf_apressure_min            =   9.6137640625000E+04
(PID.TID 0000.0001) %MON exf_apressure_mean           =   1.0108381255154E+05
(PID.TID 0000.0001) %MON exf_apressure_sd             =   1.0319047012006E+03
(PID.TID 0000.0001) %MON exf_apressure_del2           =   2.0687384955182E+02
(PID.TID 0000.0001) %MON exf_runoff_max               =   4.1616140845428E-06
(PID.TID 0000.0001) %MON exf_runoff_min               =   0.0000000000000E+00
(PID.TID 0000.0001) %MON exf_runoff_mean              =   3.6272746083540E-09
(PID.TID 0000.0001) %MON exf_runoff_sd                =   4.6684030161543E-08
(PID.TID 0000.0001) %MON exf_runoff_del2              =   1.4166060067744E-10
(PID.TID 0000.0001) // =======================================================
(PID.TID 0000.0001) // End MONITOR EXF statistics
(PID.TID 0000.0001) // =======================================================
 cg2d: Sum(rhs),rhsMax =  -5.15308667950331E+01  1.84855807565740E+00
(PID.TID 0000.0001)  ploadbar=  1.01083812551545E+05
 cg2d: Sum(rhs),rhsMax =  -5.17196326323680E+01  1.84140661898392E+00
(PID.TID 0000.0001)  ploadbar=  1.01084163929642E+05
 cg2d: Sum(rhs),rhsMax =  -5.19105012574272E+01  1.83422358936815E+00
(PID.TID 0000.0001)  ploadbar=  1.01084515307740E+05
 cg2d: Sum(rhs),rhsMax =  -5.21039332611122E+01  1.82699077200930E+00
(PID.TID 0000.0001)  ploadbar=  1.01084866685838E+05
 cg2d: Sum(rhs),rhsMax =  -5.22970794246417E+01  1.81981438783825E+00
(PID.TID 0000.0001)  ploadbar=  1.01084229772564E+05
 cg2d: Sum(rhs),rhsMax =  -5.24938663283567E+01  1.81255385281681E+00
(PID.TID 0000.0001)  ploadbar=  1.01083592859290E+05
 cg2d: Sum(rhs),rhsMax =  -5.26959415215654E+01  1.80515089951238E+00
(PID.TID 0000.0001)  ploadbar=  1.01082955946016E+05
 cg2d: Sum(rhs),rhsMax =  -5.29006946115514E+01  1.79769677657258E+00
(PID.TID 0000.0001)  ploadbar=  1.01082319032742E+05
 cg2d: Sum(rhs),rhsMax =  -5.31049927374989E+01  1.79029382225975E+00
(PID.TID 0000.0001)  ploadbar=  1.01081682119469E+05
 cg2d: Sum(rhs),rhsMax =  -5.33054938786904E+01  1.78304888682115E+00
(PID.TID 0000.0001)  ploadbar=  1.01081045206195E+05
 cg2d: Sum(rhs),rhsMax =  -5.34885456753928E+01  1.77639675645379E+00
(PID.TID 0000.0001)  ploadbar=  1.01080019786361E+05
 cg2d: Sum(rhs),rhsMax =  -5.36611255804106E+01  1.77009590705474E+00
(PID.TID 0000.0001)  ploadbar=  1.01078994366527E+05
 cg2d: Sum(rhs),rhsMax =  -5.38192420724575E+01  1.76426780994882E+00
(PID.TID 0000.0001)  ploadbar=  1.01077968946693E+05
 cg2d: Sum(rhs),rhsMax =  -5.39645104626703E+01  1.75884992699229E+00
(PID.TID 0000.0001)  ploadbar=  1.01076943526859E+05
 cg2d: Sum(rhs),rhsMax =  -5.40997651435542E+01  1.75374028564674E+00
(PID.TID 0000.0001)  ploadbar=  1.01075918107024E+05
 cg2d: Sum(rhs),rhsMax =  -5.42251130225290E+01  1.74892439417188E+00
(PID.TID 0000.0001)  ploadbar=  1.01074892687190E+05
 cg2d: Sum(rhs),rhsMax =  -5.43409029918679E+01  1.74449882498525E+00
(PID.TID 0000.0001)  ploadbar=  1.01074258354558E+05
 cg2d: Sum(rhs),rhsMax =  -5.44450523464829E+01  1.74052553411147E+00
(PID.TID 0000.0001)  ploadbar=  1.01073624021926E+05
 cg2d: Sum(rhs),rhsMax =  -5.45311537949750E+01  1.73719867872278E+00
(PID.TID 0000.0001)  ploadbar=  1.01072989689293E+05
 cg2d: Sum(rhs),rhsMax =  -5.45929781497028E+01  1.73470837135228E+00
(PID.TID 0000.0001)  ploadbar=  1.01072355356661E+05
 cg2d: Sum(rhs),rhsMax =  -5.46286326168581E+01  1.73310433275895E+00
(PID.TID 0000.0001)  ploadbar=  1.01071721024028E+05
 cg2d: Sum(rhs),rhsMax =  -5.46373799529240E+01  1.73240188320745E+00
(PID.TID 0000.0001)  ploadbar=  1.01071086691396E+05
 cg2d: Sum(rhs),rhsMax =  -5.46297514017221E+01  1.73220894161586E+00
(PID.TID 0000.0001)  ploadbar=  1.01069989446600E+05
 cg2d: Sum(rhs),rhsMax =  -5.46030534235398E+01  1.73260829657269E+00
(PID.TID 0000.0001)  ploadbar=  1.01068892201804E+05
 cg2d: Sum(rhs),rhsMax =  -5.45536662294960E+01  1.73371209524750E+00
(PID.TID 0000.0001)  ploadbar=  1.01067794957009E+05
 cg2d: Sum(rhs),rhsMax =  -5.44887149525263E+01  1.73529327852051E+00
(PID.TID 0000.0001)  ploadbar=  1.01066697712213E+05
 cg2d: Sum(rhs),rhsMax =  -5.44109605419045E+01  1.73726415497958E+00
(PID.TID 0000.0001)  ploadbar=  1.01065600467417E+05
 cg2d: Sum(rhs),rhsMax =  -5.43211196000924E+01  1.73960514335308E+00
(PID.TID 0000.0001)  ploadbar=  1.01064503222622E+05
 cg2d: Sum(rhs),rhsMax =  -5.42225255221285E+01  1.74226484172303E+00
(PID.TID 0000.0001)  ploadbar=  1.01062752309824E+05
 cg2d: Sum(rhs),rhsMax =  -5.41177806928599E+01  1.74515750944533E+00
(PID.TID 0000.0001)  ploadbar=  1.01061001397027E+05
 cg2d: Sum(rhs),rhsMax =  -5.40261638113428E+01  1.74765552412917E+00
(PID.TID 0000.0001)  ploadbar=  1.01059250484230E+05
 cg2d: Sum(rhs),rhsMax =  -5.39286767926049E+01  1.75036751226141E+00
(PID.TID 0000.0001)  ploadbar=  1.01057499571433E+05
 cg2d: Sum(rhs),rhsMax =  -5.38258705804432E+01  1.75327153218486E+00
(PID.TID 0000.0001)  ploadbar=  1.01055748658636E+05
 cg2d: Sum(rhs),rhsMax =  -5.37185592085406E+01  1.75633447716574E+00
(PID.TID 0000.0001)  ploadbar=  1.01053997745839E+05
 cg2d: Sum(rhs),rhsMax =  -5.36038151933905E+01  1.75962026404572E+00
(PID.TID 0000.0001)  ploadbar=  1.01053254086146E+05
 cg2d: Sum(rhs),rhsMax =  -5.34881901518440E+01  1.76291384600597E+00
(PID.TID 0000.0001)  ploadbar=  1.01052510426452E+05
 cg2d: Sum(rhs),rhsMax =  -5.33701858451389E+01  1.76626197276302E+00
(PID.TID 0000.0001)  ploadbar=  1.01051766766758E+05
 cg2d: Sum(rhs),rhsMax =  -5.32508092475238E+01  1.76962734378544E+00
(PID.TID 0000.0001)  ploadbar=  1.01051023107065E+05
 cg2d: Sum(rhs),rhsMax =  -5.31324591571561E+01  1.77292716369054E+00
(PID.TID 0000.0001)  ploadbar=  1.01050279447371E+05
 cg2d: Sum(rhs),rhsMax =  -5.30158235925970E+01  1.77613453869173E+00
(PID.TID 0000.0001)  ploadbar=  1.01049535787678E+05
 cg2d: Sum(rhs),rhsMax =  -5.28903564292237E+01  1.77969330015976E+00
(PID.TID 0000.0001)  ploadbar=  1.01048306720933E+05
 cg2d: Sum(rhs),rhsMax =  -5.27648396470226E+01  1.78330624911917E+00
(PID.TID 0000.0001)  ploadbar=  1.01047077654189E+05
 cg2d: Sum(rhs),rhsMax =  -5.26403915212355E+01  1.78692965695870E+00
(PID.TID 0000.0001)  ploadbar=  1.01045848587444E+05
 cg2d: Sum(rhs),rhsMax =  -5.25146244858959E+01  1.79064243414831E+00
(PID.TID 0000.0001)  ploadbar=  1.01044619520700E+05
 cg2d: Sum(rhs),rhsMax =  -5.23889559301438E+01  1.79439002830564E+00
(PID.TID 0000.0001)  ploadbar=  1.01043390453956E+05
 cg2d: Sum(rhs),rhsMax =  -5.22656884266774E+01  1.79808664306076E+00
(PID.TID 0000.0001)  ploadbar=  1.01042161387211E+05
 cg2d: Sum(rhs),rhsMax =  -5.21429919228992E+01  1.80177885998873E+00
(PID.TID 0000.0001)  ploadbar=  1.01042040022617E+05
 cg2d: Sum(rhs),rhsMax =  -5.20212148553431E+01  1.80544951291575E+00
(PID.TID 0000.0001)  ploadbar=  1.01041918658023E+05
 cg2d: Sum(rhs),rhsMax =  -5.19031671605592E+01  1.80899604041886E+00
(PID.TID 0000.0001)  ploadbar=  1.01041797293429E+05
 cg2d: Sum(rhs),rhsMax =  -5.17873763741249E+01  1.81246075175017E+00
(PID.TID 0000.0001)  ploadbar=  1.01041675928835E+05
 cg2d: Sum(rhs),rhsMax =  -5.16745706164657E+01  1.81581304923167E+00
(PID.TID 0000.0001)  ploadbar=  1.01041554564241E+05
 cg2d: Sum(rhs),rhsMax =  -5.15650810916036E+01  1.81903525863420E+00
(PID.TID 0000.0001)  ploadbar=  1.01041433199647E+05
 cg2d: Sum(rhs),rhsMax =  -5.14554075211220E+01  1.82226431798195E+00
(PID.TID 0000.0001)  ploadbar=  1.01040904024638E+05
 cg2d: Sum(rhs),rhsMax =  -5.13485158305154E+01  1.82539090340857E+00
(PID.TID 0000.0001)  ploadbar=  1.01040374849628E+05
 cg2d: Sum(rhs),rhsMax =  -5.12462078541235E+01  1.82834395842275E+00
(PID.TID 0000.0001)  ploadbar=  1.01039845674618E+05
 cg2d: Sum(rhs),rhsMax =  -5.11468852837126E+01  1.83117270316029E+00
(PID.TID 0000.0001)  ploadbar=  1.01039316499609E+05
 cg2d: Sum(rhs),rhsMax =  -5.10503075660885E+01  1.83387695597275E+00
(PID.TID 0000.0001)  ploadbar=  1.01038787324599E+05
 cg2d: Sum(rhs),rhsMax =  -5.09566242724253E+01  1.83644353379902E+00
(PID.TID 0000.0001)  ploadbar=  1.01038258149590E+05
 cg2d: Sum(rhs),rhsMax =  -5.08671453232758E+01  1.83882941179666E+00
(PID.TID 0000.0001)  ploadbar=  1.01039232673391E+05
 cg2d: Sum(rhs),rhsMax =  -5.07762290963122E+01  1.84123463642291E+00
(PID.TID 0000.0001)  ploadbar=  1.01040207197192E+05
 cg2d: Sum(rhs),rhsMax =  -5.06814293143212E+01  1.84374568407211E+00
(PID.TID 0000.0001)  ploadbar=  1.01041181720993E+05
 cg2d: Sum(rhs),rhsMax =  -5.05829142910895E+01  1.84635183341278E+00
(PID.TID 0000.0001)  ploadbar=  1.01042156244794E+05
 cg2d: Sum(rhs),rhsMax =  -5.04794458855723E+01  1.84909454973800E+00
(PID.TID 0000.0001)  ploadbar=  1.01043130768595E+05
 cg2d: Sum(rhs),rhsMax =  -5.03709423609666E+01  1.85197400330950E+00
(PID.TID 0000.0001)  ploadbar=  1.01044105292396E+05
 cg2d: Sum(rhs),rhsMax =  -5.02508734258416E+01  1.85534979416018E+00
(PID.TID 0000.0001)  ploadbar=  1.01044826226993E+05
 cg2d: Sum(rhs),rhsMax =  -5.01226892356985E+01  1.85909518625268E+00
(PID.TID 0000.0001)  ploadbar=  1.01045547161589E+05
 cg2d: Sum(rhs),rhsMax =  -4.99865984274582E+01  1.86320172210827E+00
(PID.TID 0000.0001)  ploadbar=  1.01046268096186E+05
 cg2d: Sum(rhs),rhsMax =  -4.98486874268608E+01  1.86743798644739E+00
(PID.TID 0000.0001)  ploadbar=  1.01046989030782E+05
 cg2d: Sum(rhs),rhsMax =  -4.97174852378397E+01  1.87147752854144E+00
(PID.TID 0000.0001)  ploadbar=  1.01047709965379E+05
 cg2d: Sum(rhs),rhsMax =  -4.96073783909963E+01  1.87476639439162E+00
(PID.TID 0000.0001)  ploadbar=  1.01048430899975E+05
 cg2d: Sum(rhs),rhsMax =  -4.95479285536364E+01  1.87617483885176E+00
(PID.TID 0000.0001)  ploadbar=  1.01048990268010E+05
 cg2d: Sum(rhs),rhsMax =  -4.95501216210191E+01  1.87526723376264E+00
(PID.TID 0000.0001)  ploadbar=  1.01049549636044E+05
 cg2d: Sum(rhs),rhsMax =  -4.96287473342171E+01  1.87147938039795E+00
(PID.TID 0000.0001)  ploadbar=  1.01050109004078E+05
 cg2d: Sum(rhs),rhsMax =  -4.97889821276730E+01  1.86463756445971E+00
(PID.TID 0000.0001)  ploadbar=  1.01050668372113E+05
 cg2d: Sum(rhs),rhsMax =  -5.00228264266655E+01  1.85509205369472E+00
(PID.TID 0000.0001)  ploadbar=  1.01051227740147E+05
 cg2d: Sum(rhs),rhsMax =  -5.03158635356560E+01  1.84344591937598E+00
(PID.TID 0000.0001)  ploadbar=  1.01051787108182E+05
 cg2d: Sum(rhs),rhsMax =  -5.06578499885800E+01  1.83018474818571E+00
(PID.TID 0000.0001)  ploadbar=  1.01053157880846E+05
 cg2d: Sum(rhs),rhsMax =  -5.10244900566161E+01  1.81623430644097E+00
(PID.TID 0000.0001)  ploadbar=  1.01054528653510E+05
 cg2d: Sum(rhs),rhsMax =  -5.13992972236124E+01  1.80220152852717E+00
(PID.TID 0000.0001)  ploadbar=  1.01055899426174E+05
 cg2d: Sum(rhs),rhsMax =  -5.17800090376334E+01  1.78816241306911E+00
(PID.TID 0000.0001)  ploadbar=  1.01057270198838E+05
 cg2d: Sum(rhs),rhsMax =  -5.21605384347239E+01  1.77432332861718E+00
(PID.TID 0000.0001)  ploadbar=  1.01058640971502E+05
 cg2d: Sum(rhs),rhsMax =  -5.25382210782858E+01  1.76076341292800E+00
(PID.TID 0000.0001)  ploadbar=  1.01060011744166E+05
 cg2d: Sum(rhs),rhsMax =  -5.28998676449938E+01  1.74793715259027E+00
(PID.TID 0000.0001)  ploadbar=  1.01061060585982E+05
 cg2d: Sum(rhs),rhsMax =  -5.32373195171373E+01  1.73607807613788E+00
(PID.TID 0000.0001)  ploadbar=  1.01062109427798E+05
 cg2d: Sum(rhs),rhsMax =  -5.35437932343496E+01  1.72536431470386E+00
(PID.TID 0000.0001)  ploadbar=  1.01063158269615E+05
 cg2d: Sum(rhs),rhsMax =  -5.38160590192202E+01  1.71584810336922E+00
(PID.TID 0000.0001)  ploadbar=  1.01064207111431E+05
 cg2d: Sum(rhs),rhsMax =  -5.40540864098104E+01  1.70748353678155E+00
(PID.TID 0000.0001)  ploadbar=  1.01065255953247E+05
 cg2d: Sum(rhs),rhsMax =  -5.42597078288528E+01  1.70017826601690E+00
(PID.TID 0000.0001)  ploadbar=  1.01066304795063E+05
 cg2d: Sum(rhs),rhsMax =  -5.44346966417621E+01  1.69396192226739E+00
(PID.TID 0000.0001)  ploadbar=  1.01066544396914E+05
 cg2d: Sum(rhs),rhsMax =  -5.45920014165209E+01  1.68841447224554E+00
(PID.TID 0000.0001)  ploadbar=  1.01066783998764E+05
 cg2d: Sum(rhs),rhsMax =  -5.47405906891557E+01  1.68324422255683E+00
(PID.TID 0000.0001)  ploadbar=  1.01067023600615E+05
 cg2d: Sum(rhs),rhsMax =  -5.48831000991876E+01  1.67836126221885E+00
(PID.TID 0000.0001)  ploadbar=  1.01067263202466E+05
 cg2d: Sum(rhs),rhsMax =  -5.50228515249190E+01  1.67365635965430E+00
(PID.TID 0000.0001)  ploadbar=  1.01067502804316E+05
 cg2d: Sum(rhs),rhsMax =  -5.51612014462652E+01  1.66907589013205E+00
(PID.TID 0000.0001)  ploadbar=  1.01067742406167E+05
 cg2d: Sum(rhs),rhsMax =  -5.53079195733018E+01  1.66423473172437E+00
(PID.TID 0000.0001)  ploadbar=  1.01068188390344E+05
 cg2d: Sum(rhs),rhsMax =  -5.54591763512726E+01  1.65924817660747E+00
(PID.TID 0000.0001)  ploadbar=  1.01068634374521E+05
 cg2d: Sum(rhs),rhsMax =  -5.56136182666366E+01  1.65415754401435E+00
(PID.TID 0000.0001)  ploadbar=  1.01069080358697E+05
 cg2d: Sum(rhs),rhsMax =  -5.57729221029356E+01  1.64890974548893E+00
(PID.TID 0000.0001)  ploadbar=  1.01069526342874E+05
 cg2d: Sum(rhs),rhsMax =  -5.59380309550304E+01  1.64347851030090E+00
(PID.TID 0000.0001)  ploadbar=  1.01069972327051E+05
 cg2d: Sum(rhs),rhsMax =  -5.61101365455865E+01  1.63782929142950E+00
(PID.TID 0000.0001)  ploadbar=  1.01070418311228E+05
 cg2d: Sum(rhs),rhsMax =  -5.62885706026365E+01  1.63209310051840E+00
(PID.TID 0000.0001)  ploadbar=  1.01070900805615E+05
 cg2d: Sum(rhs),rhsMax =  -5.64687247013167E+01  1.62639956745990E+00
(PID.TID 0000.0001)  ploadbar=  1.01071383300002E+05
 cg2d: Sum(rhs),rhsMax =  -5.66502481076041E+01  1.62075277702517E+00
(PID.TID 0000.0001)  ploadbar=  1.01071865794389E+05
 cg2d: Sum(rhs),rhsMax =  -5.68323590832946E+01  1.61516938029757E+00
(PID.TID 0000.0001)  ploadbar=  1.01072348288776E+05
 cg2d: Sum(rhs),rhsMax =  -5.70141397824922E+01  1.60966809436574E+00
(PID.TID 0000.0001)  ploadbar=  1.01072830783164E+05
 cg2d: Sum(rhs),rhsMax =  -5.71948381016343E+01  1.60425884122288E+00
(PID.TID 0000.0001)  ploadbar=  1.01073313277551E+05
 cg2d: Sum(rhs),rhsMax =  -5.73816019890572E+01  1.59869098928816E+00
(PID.TID 0000.0001)  ploadbar=  1.01072083856466E+05
 cg2d: Sum(rhs),rhsMax =  -5.75719299213791E+01  1.59303047471792E+00
(PID.TID 0000.0001)  ploadbar=  1.01070854435382E+05
 cg2d: Sum(rhs),rhsMax =  -5.77608426483152E+01  1.58741139143716E+00
(PID.TID 0000.0001)  ploadbar=  1.01069625014297E+05
 cg2d: Sum(rhs),rhsMax =  -5.79507612971425E+01  1.58176116184768E+00
(PID.TID 0000.0001)  ploadbar=  1.01068395593213E+05
 cg2d: Sum(rhs),rhsMax =  -5.81419245866298E+01  1.57607016344983E+00
(PID.TID 0000.0001)  ploadbar=  1.01067166172128E+05
 cg2d: Sum(rhs),rhsMax =  -5.83336556799396E+01  1.57035174413974E+00
(PID.TID 0000.0001)  ploadbar=  1.01065936751043E+05
 cg2d: Sum(rhs),rhsMax =  -5.85251197147455E+01  1.56473620812529E+00
(PID.TID 0000.0001)  ploadbar=  1.01065075926970E+05
 cg2d: Sum(rhs),rhsMax =  -5.87200182725046E+01  1.55912258827497E+00
(PID.TID 0000.0001)  ploadbar=  1.01064215102897E+05
 cg2d: Sum(rhs),rhsMax =  -5.89118599941435E+01  1.55367669192325E+00
(PID.TID 0000.0001)  ploadbar=  1.01063354278823E+05
 cg2d: Sum(rhs),rhsMax =  -5.90986522978914E+01  1.54844133690095E+00
(PID.TID 0000.0001)  ploadbar=  1.01062493454750E+05
 cg2d: Sum(rhs),rhsMax =  -5.92797688823150E+01  1.54342292128681E+00
(PID.TID 0000.0001)  ploadbar=  1.01061632630677E+05
 cg2d: Sum(rhs),rhsMax =  -5.94539819907196E+01  1.53864244949391E+00
(PID.TID 0000.0001)  ploadbar=  1.01060771806603E+05
 cg2d: Sum(rhs),rhsMax =  -5.96218736210378E+01  1.53406146269035E+00
(PID.TID 0000.0001)  ploadbar=  1.01059349863927E+05
 cg2d: Sum(rhs),rhsMax =  -5.97886290874350E+01  1.52953863263010E+00
(PID.TID 0000.0001)  ploadbar=  1.01057927921251E+05
 cg2d: Sum(rhs),rhsMax =  -5.99535296369571E+01  1.52508610615330E+00
(PID.TID 0000.0001)  ploadbar=  1.01056505978574E+05
 cg2d: Sum(rhs),rhsMax =  -6.01149422296651E+01  1.52073695358072E+00
(PID.TID 0000.0001)  ploadbar=  1.01055084035898E+05
 cg2d: Sum(rhs),rhsMax =  -6.02729276100668E+01  1.51647553257824E+00
(PID.TID 0000.0001)  ploadbar=  1.01053662093222E+05
 cg2d: Sum(rhs),rhsMax =  -6.04268154907858E+01  1.51230686475685E+00
(PID.TID 0000.0001)  ploadbar=  1.01052240150546E+05
 cg2d: Sum(rhs),rhsMax =  -6.05566119394077E+01  1.50874378750456E+00
(PID.TID 0000.0001)  ploadbar=  1.01050121938352E+05
 cg2d: Sum(rhs),rhsMax =  -6.06654870325525E+01  1.50570186492033E+00
(PID.TID 0000.0001)  ploadbar=  1.01048003726159E+05
 cg2d: Sum(rhs),rhsMax =  -6.07596350275932E+01  1.50301646289007E+00
(PID.TID 0000.0001)  ploadbar=  1.01045885513965E+05
 cg2d: Sum(rhs),rhsMax =  -6.08305840931927E+01  1.50089125333864E+00
(PID.TID 0000.0001)  ploadbar=  1.01043767301771E+05
 cg2d: Sum(rhs),rhsMax =  -6.08775914997724E+01  1.49933682375881E+00
(PID.TID 0000.0001)  ploadbar=  1.01041649089578E+05
 cg2d: Sum(rhs),rhsMax =  -6.09044722589408E+01  1.49825134221240E+00
(PID.TID 0000.0001)  ploadbar=  1.01039530877384E+05
 cg2d: Sum(rhs),rhsMax =  -6.05818947987102E+01  1.50578305966878E+00
(PID.TID 0000.0001)  ploadbar=  1.01039548006352E+05
 cg2d: Sum(rhs),rhsMax =  -5.93909356787212E+01  1.53549915705327E+00
(PID.TID 0000.0001)  ploadbar=  1.01039565135320E+05
 cg2d: Sum(rhs),rhsMax =  -5.84469709060808E+01  1.55978371641178E+00
(PID.TID 0000.0001)  ploadbar=  1.01039582264288E+05
 cg2d: Sum(rhs),rhsMax =  -5.77221976291242E+01  1.57881563476239E+00
(PID.TID 0000.0001)  ploadbar=  1.01039599393256E+05
 cg2d: Sum(rhs),rhsMax =  -5.71740227228119E+01  1.59335937489984E+00
(PID.TID 0000.0001)  ploadbar=  1.01039616522223E+05
 cg2d: Sum(rhs),rhsMax =  -5.67655237538421E+01  1.60419200076519E+00
(PID.TID 0000.0001)  ploadbar=  1.01039633651191E+05
 cg2d: Sum(rhs),rhsMax =  -5.64881787690428E+01  1.61152548485376E+00
(PID.TID 0000.0001)  ploadbar=  1.01040373194049E+05
 cg2d: Sum(rhs),rhsMax =  -5.63212358429007E+01  1.61585023599777E+00
(PID.TID 0000.0001)  ploadbar=  1.01041112736906E+05
 cg2d: Sum(rhs),rhsMax =  -5.62446320968396E+01  1.61768837180641E+00
(PID.TID 0000.0001)  ploadbar=  1.01041852279763E+05
 cg2d: Sum(rhs),rhsMax =  -5.62404961162550E+01  1.61753109783376E+00
(PID.TID 0000.0001)  ploadbar=  1.01042591822620E+05
 cg2d: Sum(rhs),rhsMax =  -5.62990253804205E+01  1.61565042885789E+00
(PID.TID 0000.0001)  ploadbar=  1.01043331365477E+05
 cg2d: Sum(rhs),rhsMax =  -5.64234806230744E+01  1.61195744660503E+00
(PID.TID 0000.0001)  ploadbar=  1.01044070908335E+05
 cg2d: Sum(rhs),rhsMax =  -5.66040776563142E+01  1.60668607610974E+00
(PID.TID 0000.0001)  ploadbar=  1.01045290652252E+05
 cg2d: Sum(rhs),rhsMax =  -5.68293765748993E+01  1.60018527977607E+00
(PID.TID 0000.0001)  ploadbar=  1.01046510396169E+05
 cg2d: Sum(rhs),rhsMax =  -5.71024872474413E+01  1.59239025540310E+00
(PID.TID 0000.0001)  ploadbar=  1.01047730140087E+05
 cg2d: Sum(rhs),rhsMax =  -5.74230777487282E+01  1.58333724216517E+00
(PID.TID 0000.0001)  ploadbar=  1.01048949884004E+05
 cg2d: Sum(rhs),rhsMax =  -5.77767198685570E+01  1.57345746400484E+00
(PID.TID 0000.0001)  ploadbar=  1.01050169627921E+05
 cg2d: Sum(rhs),rhsMax =  -5.81633329908537E+01  1.56278528734299E+00
(PID.TID 0000.0001)  ploadbar=  1.01051389371839E+05
 cg2d: Sum(rhs),rhsMax =  -5.85736560148264E+01  1.55161973098753E+00
(PID.TID 0000.0001)  ploadbar=  1.01052678255644E+05
 cg2d: Sum(rhs),rhsMax =  -5.90068153729053E+01  1.54000755695856E+00
(PID.TID 0000.0001)  ploadbar=  1.01053967139449E+05
 cg2d: Sum(rhs),rhsMax =  -5.94687981674002E+01  1.52781427875056E+00
(PID.TID 0000.0001)  ploadbar=  1.01055256023254E+05
 cg2d: Sum(rhs),rhsMax =  -5.99675824802500E+01  1.51486514072483E+00
(PID.TID 0000.0001)  ploadbar=  1.01056544907059E+05
 cg2d: Sum(rhs),rhsMax =  -6.05171869578485E+01  1.50085360516136E+00
(PID.TID 0000.0001)  ploadbar=  1.01057833790864E+05
 cg2d: Sum(rhs),rhsMax =  -6.11272950411374E+01  1.48560033890246E+00
(PID.TID 0000.0001)  ploadbar=  1.01059122674669E+05
 cg2d: Sum(rhs),rhsMax =  -6.17670492883220E+01  1.46991066087989E+00
(PID.TID 0000.0001)  ploadbar=  1.01060310622718E+05
 cg2d: Sum(rhs),rhsMax =  -6.24190053176753E+01  1.45422223124462E+00
(PID.TID 0000.0001)  ploadbar=  1.01061498570767E+05
 cg2d: Sum(rhs),rhsMax =  -6.30658611287253E+01  1.43893342240341E+00
(PID.TID 0000.0001)  ploadbar=  1.01062686518816E+05
 cg2d: Sum(rhs),rhsMax =  -6.36975721832069E+01  1.42425080067098E+00
(PID.TID 0000.0001)  ploadbar=  1.01063874466864E+05
 cg2d: Sum(rhs),rhsMax =  -6.41670192751956E+01  1.41337670860168E+00
(PID.TID 0000.0001)  ploadbar=  1.01065062414913E+05
 cg2d: Sum(rhs),rhsMax =  -6.42488530703591E+01  1.41107647900259E+00
(PID.TID 0000.0001)  ploadbar=  1.01066250362962E+05
 cg2d: Sum(rhs),rhsMax =  -6.43162966219725E+01  1.40915428206559E+00
(PID.TID 0000.0001)  ploadbar=  1.01066025593410E+05
 cg2d: Sum(rhs),rhsMax =  -6.43804651177342E+01  1.40736343397133E+00
(PID.TID 0000.0001)  ploadbar=  1.01065800823859E+05
 cg2d: Sum(rhs),rhsMax =  -6.44375199577992E+01  1.40578268762017E+00
(PID.TID 0000.0001)  ploadbar=  1.01065576054307E+05
 cg2d: Sum(rhs),rhsMax =  -6.44876693431668E+01  1.40440213115200E+00
(PID.TID 0000.0001)  ploadbar=  1.01065351284755E+05
 cg2d: Sum(rhs),rhsMax =  -6.45336368567336E+01  1.40315489844975E+00
(PID.TID 0000.0001)  ploadbar=  1.01065126515204E+05
 cg2d: Sum(rhs),rhsMax =  -6.45767739333336E+01  1.40200138122686E+00
(PID.TID 0000.0001)  ploadbar=  1.01064901745652E+05
 cg2d: Sum(rhs),rhsMax =  -6.45881581548557E+01  1.40153889147523E+00
(PID.TID 0000.0001)  ploadbar=  1.01065709089233E+05
 cg2d: Sum(rhs),rhsMax =  -6.45850713523287E+01  1.40138585715289E+00
(PID.TID 0000.0001)  ploadbar=  1.01066516432813E+05
 cg2d: Sum(rhs),rhsMax =  -6.45729190870786E+01  1.40141700232878E+00
(PID.TID 0000.0001)  ploadbar=  1.01067323776394E+05
 cg2d: Sum(rhs),rhsMax =  -6.45446777969814E+01  1.40177815770484E+00
(PID.TID 0000.0001)  ploadbar=  1.01068131119975E+05
 cg2d: Sum(rhs),rhsMax =  -6.44983290517981E+01  1.40251148375563E+00
(PID.TID 0000.0001)  ploadbar=  1.01068938463555E+05
 cg2d: Sum(rhs),rhsMax =  -6.44318828237124E+01  1.40365503065497E+00
(PID.TID 0000.0001)  ploadbar=  1.01069745807136E+05
 cg2d: Sum(rhs),rhsMax =  -6.43554612306724E+01  1.40501318512177E+00
(PID.TID 0000.0001)  ploadbar=  1.01071273411471E+05
 cg2d: Sum(rhs),rhsMax =  -6.42558302730074E+01  1.40687620188186E+00
(PID.TID 0000.0001)  ploadbar=  1.01072801015807E+05
 cg2d: Sum(rhs),rhsMax =  -6.41361159511153E+01  1.40917683714566E+00
(PID.TID 0000.0001)  ploadbar=  1.01074328620142E+05
 cg2d: Sum(rhs),rhsMax =  -6.39974234637691E+01  1.41189200396822E+00
(PID.TID 0000.0001)  ploadbar=  1.01075856224478E+05
 cg2d: Sum(rhs),rhsMax =  -6.38380600369891E+01  1.41505885736101E+00
(PID.TID 0000.0001)  ploadbar=  1.01077383828813E+05
 cg2d: Sum(rhs),rhsMax =  -6.36569134267595E+01  1.41870258132327E+00
(PID.TID 0000.0001)  ploadbar=  1.01078911433149E+05
 cg2d: Sum(rhs),rhsMax =  -6.34562994115280E+01  1.42276112410274E+00
(PID.TID 0000.0001)  ploadbar=  1.01079164824774E+05
 cg2d: Sum(rhs),rhsMax =  -6.32347121080149E+01  1.42727352331968E+00
(PID.TID 0000.0001)  ploadbar=  1.01079418216399E+05
 cg2d: Sum(rhs),rhsMax =  -6.30021991077111E+01  1.43201737606137E+00
(PID.TID 0000.0001)  ploadbar=  1.01079671608025E+05
 cg2d: Sum(rhs),rhsMax =  -6.27569423153479E+01  1.43703595067696E+00
(PID.TID 0000.0001)  ploadbar=  1.01079924999650E+05
 cg2d: Sum(rhs),rhsMax =  -6.24976920754464E+01  1.44236181588456E+00
(PID.TID 0000.0001)  ploadbar=  1.01080178391276E+05
 cg2d: Sum(rhs),rhsMax =  -6.22259234221979E+01  1.44796558772581E+00
(PID.TID 0000.0001)  ploadbar=  1.01080431782901E+05
 cg2d: Sum(rhs),rhsMax =  -6.19687547189563E+01  1.45333228919248E+00
(PID.TID 0000.0001)  ploadbar=  1.01080845374981E+05
 cg2d: Sum(rhs),rhsMax =  -6.17098516264741E+01  1.45883651635123E+00
(PID.TID 0000.0001)  ploadbar=  1.01081258967061E+05
 cg2d: Sum(rhs),rhsMax =  -6.14484823119289E+01  1.46449559848609E+00
(PID.TID 0000.0001)  ploadbar=  1.01081672559141E+05
 cg2d: Sum(rhs),rhsMax =  -6.11893665828946E+01  1.47019480908442E+00
(PID.TID 0000.0001)  ploadbar=  1.01082086151220E+05
 cg2d: Sum(rhs),rhsMax =  -6.09329752378390E+01  1.47591881106001E+00
(PID.TID 0000.0001)  ploadbar=  1.01082499743300E+05
 cg2d: Sum(rhs),rhsMax =  -6.06799752671791E+01  1.48164453608372E+00
(PID.TID 0000.0001)  ploadbar=  1.01082913335380E+05
 cg2d: Sum(rhs),rhsMax =  -6.04230602804882E+01  1.48752354179835E+00
(PID.TID 0000.0001)  ploadbar=  1.01084374949727E+05
 cg2d: Sum(rhs),rhsMax =  -6.01733017376829E+01  1.49327986806757E+00
(PID.TID 0000.0001)  ploadbar=  1.01085836564074E+05
 cg2d: Sum(rhs),rhsMax =  -5.99312977003537E+01  1.49888681000051E+00
(PID.TID 0000.0001)  ploadbar=  1.01087298178421E+05
 cg2d: Sum(rhs),rhsMax =  -5.96950220362196E+01  1.50438517081197E+00
(PID.TID 0000.0001)  ploadbar=  1.01088759792768E+05
 cg2d: Sum(rhs),rhsMax =  -5.94632421323555E+01  1.50980129908680E+00
(PID.TID 0000.0001)  ploadbar=  1.01090221407115E+05
 cg2d: Sum(rhs),rhsMax =  -5.92355732966814E+01  1.51513910816618E+00
(PID.TID 0000.0001)  ploadbar=  1.01091683021462E+05
 cg2d: Sum(rhs),rhsMax =  -5.90179893228080E+01  1.52027027898410E+00
(PID.TID 0000.0001)  ploadbar=  1.01092445683921E+05
 cg2d: Sum(rhs),rhsMax =  -5.88021471621072E+01  1.52540168508520E+00
(PID.TID 0000.0001)  ploadbar=  1.01093208346380E+05
 cg2d: Sum(rhs),rhsMax =  -5.85864253775821E+01  1.53057076705100E+00
(PID.TID 0000.0001)  ploadbar=  1.01093971008839E+05
 cg2d: Sum(rhs),rhsMax =  -5.83687183849234E+01  1.53582714317474E+00
(PID.TID 0000.0001)  ploadbar=  1.01094733671298E+05
 cg2d: Sum(rhs),rhsMax =  -5.81499468851715E+01  1.54114487590819E+00
(PID.TID 0000.0001)  ploadbar=  1.01095496333758E+05
 cg2d: Sum(rhs),rhsMax =  -5.79307142447040E+01  1.54650743856306E+00
(PID.TID 0000.0001)  ploadbar=  1.01096258996217E+05
 cg2d: Sum(rhs),rhsMax =  -5.76945241035245E+01  1.55231890427555E+00
(PID.TID 0000.0001)  ploadbar=  1.01097608441159E+05
 cg2d: Sum(rhs),rhsMax =  -5.74560382101822E+01  1.55818663255334E+00
(PID.TID 0000.0001)  ploadbar=  1.01098957886102E+05
 cg2d: Sum(rhs),rhsMax =  -5.72162815455375E+01  1.56408160663315E+00
(PID.TID 0000.0001)  ploadbar=  1.01100307331045E+05
 cg2d: Sum(rhs),rhsMax =  -5.69744912422337E+01  1.57002317123501E+00
(PID.TID 0000.0001)  ploadbar=  1.01101656775988E+05
 cg2d: Sum(rhs),rhsMax =  -5.67300986777946E+01  1.57602593442644E+00
(PID.TID 0000.0001)  ploadbar=  1.01103006220930E+05
 cg2d: Sum(rhs),rhsMax =  -5.64830130590791E+01  1.58209221272530E+00
(PID.TID 0000.0001)  ploadbar=  1.01104355665873E+05
 cg2d: Sum(rhs),rhsMax =  -5.62347555243260E+01  1.58827426433189E+00
(PID.TID 0000.0001)  ploadbar=  1.01104796374273E+05
 cg2d: Sum(rhs),rhsMax =  -5.53576166003673E+01  1.61265409476228E+00
(PID.TID 0000.0001)  ploadbar=  1.01105237082672E+05
 cg2d: Sum(rhs),rhsMax =  -5.41359467229091E+01  1.64827045204736E+00
(PID.TID 0000.0001)  ploadbar=  1.01105677791072E+05
 cg2d: Sum(rhs),rhsMax =  -5.28455106512716E+01  1.68775122755612E+00
(PID.TID 0000.0001)  ploadbar=  1.01106118499471E+05
 cg2d: Sum(rhs),rhsMax =  -5.15148680545322E+01  1.73057870296513E+00
(PID.TID 0000.0001)  ploadbar=  1.01106559207871E+05
 cg2d: Sum(rhs),rhsMax =  -5.01679229306913E+01  1.77626930208954E+00
(PID.TID 0000.0001)  ploadbar=  1.01106999916270E+05
 cg2d: Sum(rhs),rhsMax =  -4.88300063448149E+01  1.82416224450825E+00
(PID.TID 0000.0001)  ploadbar=  1.01108596690080E+05
 cg2d: Sum(rhs),rhsMax =  -4.74873106235686E+01  1.87495819512096E+00
(PID.TID 0000.0001)  ploadbar=  1.01110193463891E+05
 cg2d: Sum(rhs),rhsMax =  -4.61271371247147E+01  1.92945350463348E+00
(PID.TID 0000.0001)  ploadbar=  1.01111790237701E+05
 cg2d: Sum(rhs),rhsMax =  -4.47559313553368E+01  1.98775680106250E+00
(PID.TID 0000.0001)  ploadbar=  1.01113387011511E+05
 cg2d: Sum(rhs),rhsMax =  -4.33881874567033E+01  2.04958631068884E+00
(PID.TID 0000.0001)  ploadbar=  1.01114983785321E+05
 cg2d: Sum(rhs),rhsMax =  -4.20392638059993E+01  2.11449777971898E+00
(PID.TID 0000.0001)  ploadbar=  1.01116580559131E+05
 cg2d: Sum(rhs),rhsMax =  -4.07987300059118E+01  2.17791763405464E+00
(PID.TID 0000.0001)  ploadbar=  1.01116913409116E+05
 cg2d: Sum(rhs),rhsMax =  -3.96838356405030E+01  2.23820597760040E+00
(PID.TID 0000.0001)  ploadbar=  1.01117246259102E+05
 cg2d: Sum(rhs),rhsMax =  -3.86930635311280E+01  2.29458641524342E+00
(PID.TID 0000.0001)  ploadbar=  1.01117579109087E+05
 cg2d: Sum(rhs),rhsMax =  -3.78137151778396E+01  2.34697540653250E+00
(PID.TID 0000.0001)  ploadbar=  1.01117911959072E+05
 cg2d: Sum(rhs),rhsMax =  -3.70330235438255E+01  2.39543302675707E+00
(PID.TID 0000.0001)  ploadbar=  1.01118244809058E+05
 cg2d: Sum(rhs),rhsMax =  -3.63393644739857E+01  2.44008521588849E+00
(PID.TID 0000.0001)  ploadbar=  1.01118577659043E+05
 cg2d: Sum(rhs),rhsMax =  -3.57174255293382E+01  2.48148765107453E+00
(PID.TID 0000.0001)  ploadbar=  1.01118738319826E+05
 cg2d: Sum(rhs),rhsMax =  -3.51435922273039E+01  2.52089830408309E+00
(PID.TID 0000.0001)  ploadbar=  1.01118898980610E+05
 cg2d: Sum(rhs),rhsMax =  -3.46049582496851E+01  2.55899954850591E+00
(PID.TID 0000.0001)  ploadbar=  1.01119059641393E+05
 cg2d: Sum(rhs),rhsMax =  -3.40936172240197E+01  2.59620438493823E+00
(PID.TID 0000.0001)  ploadbar=  1.01119220302176E+05
 cg2d: Sum(rhs),rhsMax =  -3.36065683935570E+01  2.63261159890383E+00
(PID.TID 0000.0001)  ploadbar=  1.01119380962959E+05
 cg2d: Sum(rhs),rhsMax =  -3.31548416057202E+01  2.66721413639569E+00
(PID.TID 0000.0001)  ploadbar=  1.01119541623743E+05
 cg2d: Sum(rhs),rhsMax =  -3.27371096503086E+01  2.70002520558844E+00
(PID.TID 0000.0001)  ploadbar=  1.01116962197760E+05
 cg2d: Sum(rhs),rhsMax =  -3.23671445292558E+01  2.72970882231639E+00
(PID.TID 0000.0001)  ploadbar=  1.01114382771778E+05
 cg2d: Sum(rhs),rhsMax =  -3.20482030346741E+01  2.75574288614884E+00
(PID.TID 0000.0001)  ploadbar=  1.01111803345796E+05
 cg2d: Sum(rhs),rhsMax =  -3.17812223908655E+01  2.77779812996287E+00
(PID.TID 0000.0001)  ploadbar=  1.01109223919814E+05
 cg2d: Sum(rhs),rhsMax =  -3.15639583519219E+01  2.79585418646397E+00
(PID.TID 0000.0001)  ploadbar=  1.01106644493832E+05
 cg2d: Sum(rhs),rhsMax =  -3.13831117703390E+01  2.81092520809680E+00
(PID.TID 0000.0001)  ploadbar=  1.01104065067850E+05
 cg2d: Sum(rhs),rhsMax =  -3.12517018579708E+01  2.82173774518417E+00
(PID.TID 0000.0001)  ploadbar=  1.01103997825697E+05
 cg2d: Sum(rhs),rhsMax =  -3.11593902035423E+01  2.82911777407366E+00
(PID.TID 0000.0001)  ploadbar=  1.01103930583545E+05
 cg2d: Sum(rhs),rhsMax =  -3.11034670673594E+01  2.83323827675998E+00
(PID.TID 0000.0001)  ploadbar=  1.01103863341393E+05
 cg2d: Sum(rhs),rhsMax =  -3.10837041777045E+01  2.83408190011802E+00
(PID.TID 0000.0001)  ploadbar=  1.01103796099240E+05
 cg2d: Sum(rhs),rhsMax =  -3.10982610245977E+01  2.83179508548810E+00
(PID.TID 0000.0001)  ploadbar=  1.01103728857088E+05
 cg2d: Sum(rhs),rhsMax =  -3.11418491943108E+01  2.82685971807665E+00
(PID.TID 0000.0001)  ploadbar=  1.01103661614935E+05
 cg2d: Sum(rhs),rhsMax =  -3.12063822531805E+01  2.82009003788775E+00
(PID.TID 0000.0001)  ploadbar=  1.01103628663314E+05
 cg2d: Sum(rhs),rhsMax =  -3.12904542601040E+01  2.81163294011292E+00
(PID.TID 0000.0001)  ploadbar=  1.01103595711693E+05
 cg2d: Sum(rhs),rhsMax =  -3.13919642884020E+01  2.80169792765494E+00
(PID.TID 0000.0001)  ploadbar=  1.01103562760071E+05
 cg2d: Sum(rhs),rhsMax =  -3.15103096638591E+01  2.79036303052333E+00
(PID.TID 0000.0001)  ploadbar=  1.01103529808450E+05
 cg2d: Sum(rhs),rhsMax =  -3.16475495825816E+01  2.77747243744226E+00
(PID.TID 0000.0001)  ploadbar=  1.01103496856829E+05
 cg2d: Sum(rhs),rhsMax =  -3.18079763177097E+01  2.76268656080338E+00
(PID.TID 0000.0001)  ploadbar=  1.01103463905207E+05
 cg2d: Sum(rhs),rhsMax =  -3.19568389742805E+01  2.74904500360228E+00
(PID.TID 0000.0001)  ploadbar=  1.01102875795595E+05
 cg2d: Sum(rhs),rhsMax =  -3.21050361389137E+01  2.73558041130862E+00
(PID.TID 0000.0001)  ploadbar=  1.01102287685982E+05
 cg2d: Sum(rhs),rhsMax =  -3.22499862750686E+01  2.72250441945415E+00
(PID.TID 0000.0001)  ploadbar=  1.01101699576369E+05
 cg2d: Sum(rhs),rhsMax =  -3.23936013703801E+01  2.70964417337761E+00
(PID.TID 0000.0001)  ploadbar=  1.01101111466756E+05
 cg2d: Sum(rhs),rhsMax =  -3.25439576672683E+01  2.69632368910321E+00
(PID.TID 0000.0001)  ploadbar=  1.01100523357143E+05
 cg2d: Sum(rhs),rhsMax =  -3.27097242852099E+01  2.68184014982275E+00
(PID.TID 0000.0001)  ploadbar=  1.01099935247530E+05
 cg2d: Sum(rhs),rhsMax =  -3.28827624362014E+01  2.66702012551292E+00
(PID.TID 0000.0001)  ploadbar=  1.01098920768281E+05
 cg2d: Sum(rhs),rhsMax =  -3.30511063290822E+01  2.65283613218175E+00
(PID.TID 0000.0001)  ploadbar=  1.01097906289033E+05
 cg2d: Sum(rhs),rhsMax =  -3.32122816538078E+01  2.63946358927598E+00
(PID.TID 0000.0001)  ploadbar=  1.01096891809784E+05
 cg2d: Sum(rhs),rhsMax =  -3.33678230710980E+01  2.62675167943300E+00
(PID.TID 0000.0001)  ploadbar=  1.01095877330535E+05
 cg2d: Sum(rhs),rhsMax =  -3.35203441673605E+01  2.61446783321200E+00
(PID.TID 0000.0001)  ploadbar=  1.01094862851286E+05
 cg2d: Sum(rhs),rhsMax =  -3.36692959104391E+01  2.60262927877963E+00
(PID.TID 0000.0001)  ploadbar=  1.01093848372038E+05
 cg2d: Sum(rhs),rhsMax =  -3.38427295650993E+01  2.58902445071570E+00
(PID.TID 0000.0001)  ploadbar=  1.01092346046292E+05
 cg2d: Sum(rhs),rhsMax =  -3.40115955828229E+01  2.57589662635100E+00
(PID.TID 0000.0001)  ploadbar=  1.01090843720546E+05
 cg2d: Sum(rhs),rhsMax =  -3.41892174389383E+01  2.56221880095860E+00
(PID.TID 0000.0001)  ploadbar=  1.01089341394799E+05
 cg2d: Sum(rhs),rhsMax =  -3.43872680335577E+01  2.54713740796084E+00
(PID.TID 0000.0001)  ploadbar=  1.01087839069053E+05
 cg2d: Sum(rhs),rhsMax =  -3.46078200560207E+01  2.53053845440845E+00
(PID.TID 0000.0001)  ploadbar=  1.01086336743307E+05
 cg2d: Sum(rhs),rhsMax =  -3.48481946479502E+01  2.51266406315370E+00
(PID.TID 0000.0001)  ploadbar=  1.01084834417561E+05
 cg2d: Sum(rhs),rhsMax =  -3.50932145636824E+01  2.49470712418001E+00
(PID.TID 0000.0001)  ploadbar=  1.01083124830448E+05
 cg2d: Sum(rhs),rhsMax =  -3.53534088970527E+01  2.47593242539605E+00
(PID.TID 0000.0001)  ploadbar=  1.01081415243335E+05
 cg2d: Sum(rhs),rhsMax =  -3.56188950760905E+01  2.45705671139198E+00
(PID.TID 0000.0001)  ploadbar=  1.01079705656221E+05
 cg2d: Sum(rhs),rhsMax =  -3.58783748039591E+01  2.43885248206769E+00
(PID.TID 0000.0001)  ploadbar=  1.01077996069108E+05
 cg2d: Sum(rhs),rhsMax =  -3.61297264336226E+01  2.42142937819095E+00
(PID.TID 0000.0001)  ploadbar=  1.01076286481994E+05
 cg2d: Sum(rhs),rhsMax =  -3.63817638708329E+01  2.40416514964102E+00
(PID.TID 0000.0001)  ploadbar=  1.01074576894881E+05
 cg2d: Sum(rhs),rhsMax =  -3.66582263459200E+01  2.38548773378909E+00
(PID.TID 0000.0001)  ploadbar=  1.01072501693505E+05
 cg2d: Sum(rhs),rhsMax =  -3.69600109579850E+01  2.36540460445851E+00
(PID.TID 0000.0001)  ploadbar=  1.01070426492129E+05
 cg2d: Sum(rhs),rhsMax =  -3.72859561566025E+01  2.34406093233382E+00
(PID.TID 0000.0001)  ploadbar=  1.01068351290753E+05
 cg2d: Sum(rhs),rhsMax =  -3.76351800386444E+01  2.32158209586581E+00
(PID.TID 0000.0001)  ploadbar=  1.01066276089377E+05
 cg2d: Sum(rhs),rhsMax =  -3.80053473933964E+01  2.29817609439808E+00
(PID.TID 0000.0001)  ploadbar=  1.01064200888001E+05
 cg2d: Sum(rhs),rhsMax =  -3.83948289870673E+01  2.27400085956489E+00
(PID.TID 0000.0001)  ploadbar=  1.01062125686624E+05
 cg2d: Sum(rhs),rhsMax =  -3.88167930886110E+01  2.24848390463602E+00
(PID.TID 0000.0001)  ploadbar=  1.01060329028973E+05
 cg2d: Sum(rhs),rhsMax =  -3.92331663134156E+01  2.22388533915561E+00
(PID.TID 0000.0001)  ploadbar=  1.01058532371321E+05
 cg2d: Sum(rhs),rhsMax =  -3.96179970309898E+01  2.20160456608428E+00
(PID.TID 0000.0001)  ploadbar=  1.01056735713670E+05
 cg2d: Sum(rhs),rhsMax =  -3.99320571887484E+01  2.18365519897453E+00
(PID.TID 0000.0001)  ploadbar=  1.01054939056018E+05
 cg2d: Sum(rhs),rhsMax =  -4.01433485730448E+01  2.17156742610920E+00
(PID.TID 0000.0001)  ploadbar=  1.01053142398367E+05
 cg2d: Sum(rhs),rhsMax =  -4.02711288640905E+01  2.16411086058377E+00
(PID.TID 0000.0001)  ploadbar=  1.01051345740716E+05
 cg2d: Sum(rhs),rhsMax =  -4.03853642690383E+01  2.15745372661684E+00
(PID.TID 0000.0001)  ploadbar=  1.01049363629346E+05
 cg2d: Sum(rhs),rhsMax =  -4.04783955255019E+01  2.15198613623391E+00
(PID.TID 0000.0001)  ploadbar=  1.01047381517976E+05
 cg2d: Sum(rhs),rhsMax =  -4.05036451704950E+01  2.15015705641591E+00
(PID.TID 0000.0001)  ploadbar=  1.01045399406607E+05
 cg2d: Sum(rhs),rhsMax =  -4.07485941849410E+01  2.13676723048695E+00
(PID.TID 0000.0001)  ploadbar=  1.01043417295237E+05
 cg2d: Sum(rhs),rhsMax =  -4.13770931597429E+01  2.10387319065903E+00
(PID.TID 0000.0001)  ploadbar=  1.01041435183867E+05
 cg2d: Sum(rhs),rhsMax =  -4.26056885208650E+01  2.04279932899640E+00
(PID.TID 0000.0001)  ploadbar=  1.01039453072498E+05
 cg2d: Sum(rhs),rhsMax =  -4.44008651356740E+01  1.95979544313797E+00
(PID.TID 0000.0001)  ploadbar=  1.01037602507481E+05
 cg2d: Sum(rhs),rhsMax =  -4.65207515936328E+01  1.87006977473812E+00
(PID.TID 0000.0001)  ploadbar=  1.01035751942464E+05
 cg2d: Sum(rhs),rhsMax =  -4.86628805835327E+01  1.78731687242534E+00
(PID.TID 0000.0001)  ploadbar=  1.01033901377447E+05
 cg2d: Sum(rhs),rhsMax =  -5.06180245486531E+01  1.71783686174275E+00
(PID.TID 0000.0001)  ploadbar=  1.01032050812430E+05
 cg2d: Sum(rhs),rhsMax =  -5.26284242836047E+01  1.65175846841485E+00
(PID.TID 0000.0001)  ploadbar=  1.01030200247413E+05
 cg2d: Sum(rhs),rhsMax =  -5.55419046117234E+01  1.56464872000823E+00
(PID.TID 0000.0001)  ploadbar=  1.01028349682396E+05
 cg2d: Sum(rhs),rhsMax =  -5.84250538776260E+01  1.48697185551567E+00
(PID.TID 0000.0001)  ploadbar=  1.01026836875449E+05
 cg2d: Sum(rhs),rhsMax =  -5.97733175300359E+01  1.45295555172915E+00
(PID.TID 0000.0001)  ploadbar=  1.01025324068503E+05
 cg2d: Sum(rhs),rhsMax =  -5.82127927065788E+01  1.49139094896420E+00
(PID.TID 0000.0001)  ploadbar=  1.01023811261556E+05
 cg2d: Sum(rhs),rhsMax =  -5.68198065766887E+01  1.52739450502883E+00
(PID.TID 0000.0001)  ploadbar=  1.01022298454609E+05
 cg2d: Sum(rhs),rhsMax =  -5.55357554930449E+01  1.56210001609989E+00
(PID.TID 0000.0001)  ploadbar=  1.01020785647663E+05
 cg2d: Sum(rhs),rhsMax =  -5.43133589347341E+01  1.59659312536885E+00
(PID.TID 0000.0001)  ploadbar=  1.01019272840716E+05
 cg2d: Sum(rhs),rhsMax =  -5.35235451093027E+01  1.61956145826334E+00
(PID.TID 0000.0001)  ploadbar=  1.01017657914290E+05
 cg2d: Sum(rhs),rhsMax =  -5.28526760120934E+01  1.63959789569801E+00
(PID.TID 0000.0001)  ploadbar=  1.01016042987863E+05
 cg2d: Sum(rhs),rhsMax =  -5.21490330502888E+01  1.66126664219309E+00
(PID.TID 0000.0001)  ploadbar=  1.01014428061437E+05
 cg2d: Sum(rhs),rhsMax =  -5.17141154610109E+01  1.67485218065693E+00
(PID.TID 0000.0001)  ploadbar=  1.01012813135010E+05
 cg2d: Sum(rhs),rhsMax =  -5.14392502563870E+01  1.68348229767814E+00
(PID.TID 0000.0001)  ploadbar=  1.01011198208584E+05
 cg2d: Sum(rhs),rhsMax =  -5.12409642500662E+01  1.68974254425996E+00
(PID.TID 0000.0001)  ploadbar=  1.01009583282157E+05
 cg2d: Sum(rhs),rhsMax =  -5.10690314080416E+01  1.69520052418184E+00
(PID.TID 0000.0001)  ploadbar=  1.01008621540755E+05
 cg2d: Sum(rhs),rhsMax =  -5.09063506978898E+01  1.70040465703261E+00
(PID.TID 0000.0001)  ploadbar=  1.01007659799352E+05
 cg2d: Sum(rhs),rhsMax =  -5.07044517869788E+01  1.70697469120279E+00
(PID.TID 0000.0001)  ploadbar=  1.01006698057950E+05
 cg2d: Sum(rhs),rhsMax =  -5.04732420455391E+01  1.71460085375791E+00
(PID.TID 0000.0001)  ploadbar=  1.01005736316548E+05
 cg2d: Sum(rhs),rhsMax =  -5.02234627169071E+01  1.72294406524209E+00
(PID.TID 0000.0001)  ploadbar=  1.01004774575146E+05
 cg2d: Sum(rhs),rhsMax =  -4.99595438765374E+01  1.73187095120986E+00
(PID.TID 0000.0001)  ploadbar=  1.01003812833743E+05
 cg2d: Sum(rhs),rhsMax =  -4.96921883478324E+01  1.74101400914681E+00
(PID.TID 0000.0001)  ploadbar=  1.01003376183838E+05
 cg2d: Sum(rhs),rhsMax =  -4.94049272361207E+01  1.75095683870279E+00
(PID.TID 0000.0001)  ploadbar=  1.01002939533932E+05
 cg2d: Sum(rhs),rhsMax =  -4.91123631390404E+01  1.76120017581178E+00
(PID.TID 0000.0001)  ploadbar=  1.01002502884026E+05
 cg2d: Sum(rhs),rhsMax =  -4.88272663099450E+01  1.77128564602092E+00
(PID.TID 0000.0001)  ploadbar=  1.01002066234120E+05
 cg2d: Sum(rhs),rhsMax =  -4.85716860507573E+01  1.78038941492213E+00
(PID.TID 0000.0001)  ploadbar=  1.01001629584215E+05
 cg2d: Sum(rhs),rhsMax =  -4.83567112526677E+01  1.78806288727077E+00
(PID.TID 0000.0001)  ploadbar=  1.01001192934309E+05
 cg2d: Sum(rhs),rhsMax =  -4.81339667912540E+01  1.79607637905918E+00
(PID.TID 0000.0001)  ploadbar=  1.01001201472928E+05
 cg2d: Sum(rhs),rhsMax =  -4.79366543538363E+01  1.80318887167972E+00
(PID.TID 0000.0001)  ploadbar=  1.01001210011547E+05
 cg2d: Sum(rhs),rhsMax =  -4.77600514782158E+01  1.80955443874530E+00
(PID.TID 0000.0001)  ploadbar=  1.01001218550165E+05
 cg2d: Sum(rhs),rhsMax =  -4.75978360068036E+01  1.81538966773530E+00
(PID.TID 0000.0001)  ploadbar=  1.01001227088784E+05
 cg2d: Sum(rhs),rhsMax =  -4.74495351431171E+01  1.82069777062797E+00
(PID.TID 0000.0001)  ploadbar=  1.01001235627403E+05
 cg2d: Sum(rhs),rhsMax =  -4.73287629600080E+01  1.82493799971826E+00
(PID.TID 0000.0001)  ploadbar=  1.01001244166022E+05
 cg2d: Sum(rhs),rhsMax =  -4.72520983956145E+01  1.82755065947999E+00
(PID.TID 0000.0001)  ploadbar=  1.01002117120839E+05
 cg2d: Sum(rhs),rhsMax =  -4.71755945606378E+01  1.83022249642995E+00
(PID.TID 0000.0001)  ploadbar=  1.01002990075656E+05
 cg2d: Sum(rhs),rhsMax =  -4.71108836678063E+01  1.83249677725661E+00
(PID.TID 0000.0001)  ploadbar=  1.01003863030472E+05
 cg2d: Sum(rhs),rhsMax =  -4.70542068542863E+01  1.83451257454862E+00
(PID.TID 0000.0001)  ploadbar=  1.01004735985289E+05
 cg2d: Sum(rhs),rhsMax =  -4.70078490701654E+01  1.83617205768296E+00
(PID.TID 0000.0001)  ploadbar=  1.01005608940106E+05
 cg2d: Sum(rhs),rhsMax =  -4.69761100911046E+01  1.83729961871882E+00
(PID.TID 0000.0001)  ploadbar=  1.01006481894923E+05
 cg2d: Sum(rhs),rhsMax =  -4.69365456972739E+01  1.83875749324368E+00
(PID.TID 0000.0001)  ploadbar=  1.01006942540371E+05
 cg2d: Sum(rhs),rhsMax =  -4.69201679350352E+01  1.83932501127754E+00
(PID.TID 0000.0001)  ploadbar=  1.01007403185819E+05
 cg2d: Sum(rhs),rhsMax =  -4.69157749005176E+01  1.83943591677539E+00
(PID.TID 0000.0001)  ploadbar=  1.01007863831267E+05
 cg2d: Sum(rhs),rhsMax =  -4.69256926831738E+01  1.83899548832977E+00
(PID.TID 0000.0001)  ploadbar=  1.01008324476715E+05
 cg2d: Sum(rhs),rhsMax =  -4.69452463893415E+01  1.83818185495025E+00
(PID.TID 0000.0001)  ploadbar=  1.01008785122163E+05
 cg2d: Sum(rhs),rhsMax =  -4.69727017948456E+01  1.83706027503966E+00
(PID.TID 0000.0001)  ploadbar=  1.01009245767610E+05
 cg2d: Sum(rhs),rhsMax =  -4.71046350634626E+01  1.83184402964460E+00
(PID.TID 0000.0001)  ploadbar=  1.01009212551515E+05
 cg2d: Sum(rhs),rhsMax =  -4.74474723869071E+01  1.81851044170125E+00
(PID.TID 0000.0001)  ploadbar=  1.01009179335419E+05
 cg2d: Sum(rhs),rhsMax =  -4.77809984156441E+01  1.80568878849438E+00
(PID.TID 0000.0001)  ploadbar=  1.01009146119324E+05
 cg2d: Sum(rhs),rhsMax =  -4.81035571431085E+01  1.79341745381947E+00
(PID.TID 0000.0001)  ploadbar=  1.01009112903229E+05
 cg2d: Sum(rhs),rhsMax =  -4.84160303741108E+01  1.78163810105633E+00
(PID.TID 0000.0001)  ploadbar=  1.01009079687133E+05
 cg2d: Sum(rhs),rhsMax =  -4.87191151742430E+01  1.77029852998449E+00
(PID.TID 0000.0001)  ploadbar=  1.01009046471038E+05
 cg2d: Sum(rhs),rhsMax =  -4.90232084671307E+01  1.75904941109891E+00
(PID.TID 0000.0001)  ploadbar=  1.01009111438115E+05
 cg2d: Sum(rhs),rhsMax =  -4.93201198020997E+01  1.74817926330616E+00
(PID.TID 0000.0001)  ploadbar=  1.01009176405192E+05
 cg2d: Sum(rhs),rhsMax =  -4.96067932031569E+01  1.73777514669955E+00
(PID.TID 0000.0001)  ploadbar=  1.01009241372269E+05
 cg2d: Sum(rhs),rhsMax =  -4.98889136474249E+01  1.72762180788666E+00
(PID.TID 0000.0001)  ploadbar=  1.01009306339346E+05
 cg2d: Sum(rhs),rhsMax =  -5.01658858126886E+01  1.71772488249905E+00
(PID.TID 0000.0001)  ploadbar=  1.01009371306423E+05
 cg2d: Sum(rhs),rhsMax =  -5.04382934703358E+01  1.70805520891275E+00
(PID.TID 0000.0001)  ploadbar=  1.01009436273500E+05
 cg2d: Sum(rhs),rhsMax =  -5.06896304041380E+01  1.69928255337819E+00
(PID.TID 0000.0001)  ploadbar=  1.01009981688788E+05
 cg2d: Sum(rhs),rhsMax =  -5.08758195678450E+01  1.69284274555928E+00
(PID.TID 0000.0001)  ploadbar=  1.01010527104076E+05
 cg2d: Sum(rhs),rhsMax =  -5.10485856157901E+01  1.68696773734414E+00
(PID.TID 0000.0001)  ploadbar=  1.01011072519363E+05
 cg2d: Sum(rhs),rhsMax =  -5.12156606381091E+01  1.68138614009544E+00
(PID.TID 0000.0001)  ploadbar=  1.01011617934651E+05
 cg2d: Sum(rhs),rhsMax =  -5.13795826482529E+01  1.67600420228070E+00
(PID.TID 0000.0001)  ploadbar=  1.01012163349939E+05
 cg2d: Sum(rhs),rhsMax =  -5.15375581589876E+01  1.67090367121170E+00
(PID.TID 0000.0001)  ploadbar=  1.01012708765226E+05
 cg2d: Sum(rhs),rhsMax =  -5.16664780868085E+01  1.66676486175958E+00
(PID.TID 0000.0001)  ploadbar=  1.01011997236032E+05
 cg2d: Sum(rhs),rhsMax =  -5.17917035291553E+01  1.66274872877336E+00
(PID.TID 0000.0001)  ploadbar=  1.01011285706839E+05
 cg2d: Sum(rhs),rhsMax =  -5.19173777096170E+01  1.65871525333528E+00
(PID.TID 0000.0001)  ploadbar=  1.01010574177645E+05
 cg2d: Sum(rhs),rhsMax =  -5.20418822875475E+01  1.65471198353467E+00
(PID.TID 0000.0001)  ploadbar=  1.01009862648451E+05
 cg2d: Sum(rhs),rhsMax =  -5.21657947984578E+01  1.65071331934202E+00
(PID.TID 0000.0001)  ploadbar=  1.01009151119258E+05
 cg2d: Sum(rhs),rhsMax =  -5.22878850271915E+01  1.64675400606945E+00
(PID.TID 0000.0001)  ploadbar=  1.01008439590064E+05
 cg2d: Sum(rhs),rhsMax =  -5.24028571504799E+01  1.64303000808161E+00
(PID.TID 0000.0001)  ploadbar=  1.01007821123086E+05
 cg2d: Sum(rhs),rhsMax =  -5.25123076370978E+01  1.63948300754940E+00
(PID.TID 0000.0001)  ploadbar=  1.01007202656107E+05
 cg2d: Sum(rhs),rhsMax =  -5.26266331021318E+01  1.63578546843322E+00
(PID.TID 0000.0001)  ploadbar=  1.01006584189128E+05
 cg2d: Sum(rhs),rhsMax =  -5.27409093649215E+01  1.63208733752082E+00
(PID.TID 0000.0001)  ploadbar=  1.01005965722149E+05
 cg2d: Sum(rhs),rhsMax =  -5.28549114012276E+01  1.62839191804424E+00
(PID.TID 0000.0001)  ploadbar=  1.01005347255171E+05
 cg2d: Sum(rhs),rhsMax =  -5.29691086454610E+01  1.62468161559567E+00
(PID.TID 0000.0001)  ploadbar=  1.01004728788192E+05
 cg2d: Sum(rhs),rhsMax =  -5.31015231572502E+01  1.62042076623891E+00
(PID.TID 0000.0001)  ploadbar=  1.01004440862180E+05
 cg2d: Sum(rhs),rhsMax =  -5.32335749262268E+01  1.61618029132340E+00
(PID.TID 0000.0001)  ploadbar=  1.01004152936168E+05
 cg2d: Sum(rhs),rhsMax =  -5.33639029677927E+01  1.61199639203673E+00
(PID.TID 0000.0001)  ploadbar=  1.01003865010157E+05
 cg2d: Sum(rhs),rhsMax =  -5.34925091057174E+01  1.60786182078854E+00
(PID.TID 0000.0001)  ploadbar=  1.01003577084145E+05
 cg2d: Sum(rhs),rhsMax =  -5.36162141445949E+01  1.60386599338360E+00
(PID.TID 0000.0001)  ploadbar=  1.01003289158133E+05
 cg2d: Sum(rhs),rhsMax =  -5.37304024720092E+01  1.60014566540188E+00
(PID.TID 0000.0001)  ploadbar=  1.01003001232121E+05
 cg2d: Sum(rhs),rhsMax =  -5.38268407470756E+01  1.59704599643470E+00
(PID.TID 0000.0001)  ploadbar=  1.01003189086114E+05
 cg2d: Sum(rhs),rhsMax =  -5.39020347190718E+01  1.59466119193021E+00
(PID.TID 0000.0001)  ploadbar=  1.01003376940108E+05
 cg2d: Sum(rhs),rhsMax =  -5.39540603722726E+01  1.59303801025979E+00
(PID.TID 0000.0001)  ploadbar=  1.01003564794101E+05
 cg2d: Sum(rhs),rhsMax =  -5.39772785648110E+01  1.59233367365097E+00
(PID.TID 0000.0001)  ploadbar=  1.01003752648094E+05
 cg2d: Sum(rhs),rhsMax =  -5.39698922244437E+01  1.59259396394068E+00
(PID.TID 0000.0001)  ploadbar=  1.01003940502087E+05
 cg2d: Sum(rhs),rhsMax =  -5.39338203858674E+01  1.59375611360026E+00
(PID.TID 0000.0001)  ploadbar=  1.01004128356081E+05
 cg2d: Sum(rhs),rhsMax =  -5.38856391730858E+01  1.59527297198182E+00
(PID.TID 0000.0001)  ploadbar=  1.01003486071884E+05
 cg2d: Sum(rhs),rhsMax =  -5.38114335937806E+01  1.59755572593294E+00
(PID.TID 0000.0001)  ploadbar=  1.01002843787687E+05
 cg2d: Sum(rhs),rhsMax =  -5.37080165526336E+01  1.60069904297374E+00
(PID.TID 0000.0001)  ploadbar=  1.01002201503489E+05
 cg2d: Sum(rhs),rhsMax =  -5.35767345832898E+01  1.60466600752973E+00
(PID.TID 0000.0001)  ploadbar=  1.01001559219292E+05
 cg2d: Sum(rhs),rhsMax =  -5.34160532466601E+01  1.60950801137660E+00
(PID.TID 0000.0001)  ploadbar=  1.01000916935095E+05
 cg2d: Sum(rhs),rhsMax =  -5.32252125336887E+01  1.61526084540322E+00
(PID.TID 0000.0001)  ploadbar=  1.01000274650898E+05
 cg2d: Sum(rhs),rhsMax =  -5.30144529828484E+01  1.62168303065778E+00
(PID.TID 0000.0001)  ploadbar=  1.00999766561883E+05
 cg2d: Sum(rhs),rhsMax =  -5.28017398855801E+01  1.62822929404500E+00
(PID.TID 0000.0001)  ploadbar=  1.00999258472867E+05
 cg2d: Sum(rhs),rhsMax =  -5.26070330953680E+01  1.63427715054861E+00
(PID.TID 0000.0001)  ploadbar=  1.00998750383852E+05
 cg2d: Sum(rhs),rhsMax =  -5.24343226179356E+01  1.63968607647553E+00
(PID.TID 0000.0001)  ploadbar=  1.00998242294836E+05
 cg2d: Sum(rhs),rhsMax =  -5.22909674367245E+01  1.64420532873380E+00
(PID.TID 0000.0001)  ploadbar=  1.00997734205821E+05
 cg2d: Sum(rhs),rhsMax =  -5.21813496278698E+01  1.64767490671363E+00
(PID.TID 0000.0001)  ploadbar=  1.00997226116805E+05
 cg2d: Sum(rhs),rhsMax =  -5.21284649031289E+01  1.64936289593675E+00
(PID.TID 0000.0001)  ploadbar=  1.00996314948131E+05
 cg2d: Sum(rhs),rhsMax =  -5.21171987726675E+01  1.64972516119242E+00
(PID.TID 0000.0001)  ploadbar=  1.00995403779457E+05
 cg2d: Sum(rhs),rhsMax =  -5.21385511391249E+01  1.64903835871888E+00
(PID.TID 0000.0001)  ploadbar=  1.00994492610782E+05
 cg2d: Sum(rhs),rhsMax =  -5.21955483660709E+01  1.64720953413787E+00
(PID.TID 0000.0001)  ploadbar=  1.00993581442108E+05
 cg2d: Sum(rhs),rhsMax =  -5.22842500737677E+01  1.64436981555738E+00
(PID.TID 0000.0001)  ploadbar=  1.00992670273434E+05
 cg2d: Sum(rhs),rhsMax =  -5.24000426928188E+01  1.64067093884257E+00
(PID.TID 0000.0001)  ploadbar=  1.00991759104759E+05
 cg2d: Sum(rhs),rhsMax =  -5.25600731790988E+01  1.63567616823887E+00
(PID.TID 0000.0001)  ploadbar=  1.00992949505258E+05
 cg2d: Sum(rhs),rhsMax =  -5.27425799002705E+01  1.63008344865016E+00
(PID.TID 0000.0001)  ploadbar=  1.00994139905757E+05
 cg2d: Sum(rhs),rhsMax =  -5.29363781770586E+01  1.62425135611237E+00
(PID.TID 0000.0001)  ploadbar=  1.00995330306256E+05
 cg2d: Sum(rhs),rhsMax =  -5.31334916459148E+01  1.61842256501126E+00
(PID.TID 0000.0001)  ploadbar=  1.00996520706754E+05
 cg2d: Sum(rhs),rhsMax =  -5.33284684877373E+01  1.61275457255918E+00
(PID.TID 0000.0001)  ploadbar=  1.00997711107253E+05
 cg2d: Sum(rhs),rhsMax =  -5.35178444292345E+01  1.60734288655074E+00
(PID.TID 0000.0001)  ploadbar=  1.00998901507752E+05
 cg2d: Sum(rhs),rhsMax =  -5.37037950360962E+01  1.60204987286939E+00
(PID.TID 0000.0001)  ploadbar=  1.00999550211358E+05
 cg2d: Sum(rhs),rhsMax =  -5.38854009162860E+01  1.59689660257472E+00
(PID.TID 0000.0001)  ploadbar=  1.01000198914964E+05
 cg2d: Sum(rhs),rhsMax =  -5.40567711032132E+01  1.59204598485266E+00
(PID.TID 0000.0001)  ploadbar=  1.01000847618570E+05
 cg2d: Sum(rhs),rhsMax =  -5.42207043881155E+01  1.58740398266378E+00
(PID.TID 0000.0001)  ploadbar=  1.01001496322176E+05
 cg2d: Sum(rhs),rhsMax =  -5.43806818097742E+01  1.58285927035358E+00
(PID.TID 0000.0001)  ploadbar=  1.01002145025781E+05
 cg2d: Sum(rhs),rhsMax =  -5.45303020120776E+01  1.57859451704255E+00
(PID.TID 0000.0001)  ploadbar=  1.01002793729387E+05
 cg2d: Sum(rhs),rhsMax =  -5.46726156335303E+01  1.57456238864230E+00
(PID.TID 0000.0001)  ploadbar=  1.01004354675381E+05
 cg2d: Sum(rhs),rhsMax =  -5.48093952597220E+01  1.57070343073861E+00
(PID.TID 0000.0001)  ploadbar=  1.01005915621374E+05
 cg2d: Sum(rhs),rhsMax =  -5.49383911963350E+01  1.56707384863012E+00
(PID.TID 0000.0001)  ploadbar=  1.01007476567368E+05
 cg2d: Sum(rhs),rhsMax =  -5.50667148321075E+01  1.56346435901651E+00
(PID.TID 0000.0001)  ploadbar=  1.01009037513361E+05
 cg2d: Sum(rhs),rhsMax =  -5.52007296706464E+01  1.55968928442586E+00
(PID.TID 0000.0001)  ploadbar=  1.01010598459355E+05
 cg2d: Sum(rhs),rhsMax =  -5.53399622776306E+01  1.55575736680933E+00
(PID.TID 0000.0001)  ploadbar=  1.01012159405348E+05
 cg2d: Sum(rhs),rhsMax =  -5.54565132576059E+01  1.55244108600374E+00
(PID.TID 0000.0001)  ploadbar=  1.01013901388504E+05
 cg2d: Sum(rhs),rhsMax =  -5.55678780337120E+01  1.54924467669352E+00
(PID.TID 0000.0001)  ploadbar=  1.01015643371660E+05
 cg2d: Sum(rhs),rhsMax =  -5.56818166328956E+01  1.54594662066912E+00
(PID.TID 0000.0001)  ploadbar=  1.01017385354815E+05
 cg2d: Sum(rhs),rhsMax =  -5.57963643265789E+01  1.54260139852743E+00
(PID.TID 0000.0001)  ploadbar=  1.01019127337971E+05
 cg2d: Sum(rhs),rhsMax =  -5.59023938045647E+01  1.53945982254819E+00
(PID.TID 0000.0001)  ploadbar=  1.01020869321127E+05
 cg2d: Sum(rhs),rhsMax =  -5.60014631886133E+01  1.53647435477371E+00
(PID.TID 0000.0001)  ploadbar=  1.01022611304282E+05
 cg2d: Sum(rhs),rhsMax =  -5.61006719238870E+01  1.53355811504439E+00
(PID.TID 0000.0001)  ploadbar=  1.01025423218284E+05
 cg2d: Sum(rhs),rhsMax =  -5.61869305732229E+01  1.53106657005084E+00
(PID.TID 0000.0001)  ploadbar=  1.01028235132286E+05
 cg2d: Sum(rhs),rhsMax =  -5.62677716633794E+01  1.52879106978138E+00
(PID.TID 0000.0001)  ploadbar=  1.01031047046288E+05
 cg2d: Sum(rhs),rhsMax =  -5.63364676466651E+01  1.52690727728440E+00
(PID.TID 0000.0001)  ploadbar=  1.01033858960290E+05
 cg2d: Sum(rhs),rhsMax =  -5.63921764154164E+01  1.52542833352717E+00
(PID.TID 0000.0001)  ploadbar=  1.01036670874291E+05
 cg2d: Sum(rhs),rhsMax =  -5.64388233438517E+01  1.52423965900207E+00
(PID.TID 0000.0001)  ploadbar=  1.01039482788293E+05
 cg2d: Sum(rhs),rhsMax =  -5.64619325001317E+01  1.52370294452977E+00
(PID.TID 0000.0001)  ploadbar=  1.01041155659772E+05
 cg2d: Sum(rhs),rhsMax =  -5.64712425297652E+01  1.52354788307949E+00
(PID.TID 0000.0001)  ploadbar=  1.01042828531251E+05
 cg2d: Sum(rhs),rhsMax =  -5.64721567156316E+01  1.52362545923633E+00
(PID.TID 0000.0001)  ploadbar=  1.01044501402730E+05
 cg2d: Sum(rhs),rhsMax =  -5.64627029236802E+01  1.52398004732452E+00
(PID.TID 0000.0001)  ploadbar=  1.01046174274209E+05
 cg2d: Sum(rhs),rhsMax =  -5.64422685542638E+01  1.52461971096542E+00
(PID.TID 0000.0001)  ploadbar=  1.01047847145688E+05
 cg2d: Sum(rhs),rhsMax =  -5.64077624906116E+01  1.52562453172193E+00
(PID.TID 0000.0001)  ploadbar=  1.01049520017167E+05
 cg2d: Sum(rhs),rhsMax =  -5.63351014276503E+01  1.52762646504874E+00
(PID.TID 0000.0001)  ploadbar=  1.01051209824911E+05
 cg2d: Sum(rhs),rhsMax =  -5.62250332614097E+01  1.53060920440053E+00
(PID.TID 0000.0001)  ploadbar=  1.01052899632655E+05
 cg2d: Sum(rhs),rhsMax =  -5.60719452045405E+01  1.53473393042615E+00
(PID.TID 0000.0001)  ploadbar=  1.01054589440398E+05
 cg2d: Sum(rhs),rhsMax =  -5.58650085590810E+01  1.54031615449063E+00
(PID.TID 0000.0001)  ploadbar=  1.01056279248142E+05
 cg2d: Sum(rhs),rhsMax =  -5.55765200269362E+01  1.54815470819995E+00
(PID.TID 0000.0001)  ploadbar=  1.01057969055886E+05
 cg2d: Sum(rhs),rhsMax =  -5.52045139057636E+01  1.55836637603974E+00
(PID.TID 0000.0001)  ploadbar=  1.01059658863629E+05
 cg2d: Sum(rhs),rhsMax =  -5.47975760476997E+01  1.56970134944010E+00
(PID.TID 0000.0001)  ploadbar=  1.01061059325345E+05
 cg2d: Sum(rhs),rhsMax =  -5.43463672480744E+01  1.58247509634919E+00
(PID.TID 0000.0001)  ploadbar=  1.01062459787061E+05
 cg2d: Sum(rhs),rhsMax =  -5.38554918206640E+01  1.59661469463634E+00
(PID.TID 0000.0001)  ploadbar=  1.01063860248777E+05
 cg2d: Sum(rhs),rhsMax =  -5.33248592664891E+01  1.61219215623650E+00
(PID.TID 0000.0001)  ploadbar=  1.01065260710493E+05
 cg2d: Sum(rhs),rhsMax =  -5.27529145662913E+01  1.62933285231939E+00
(PID.TID 0000.0001)  ploadbar=  1.01066661172209E+05
 cg2d: Sum(rhs),rhsMax =  -5.21351031916219E+01  1.64827157618462E+00
(PID.TID 0000.0001)  ploadbar=  1.01068061633925E+05
 cg2d: Sum(rhs),rhsMax =  -5.14835128996049E+01  1.66882863249696E+00
(PID.TID 0000.0001)  ploadbar=  1.01068830276689E+05
 cg2d: Sum(rhs),rhsMax =  -5.07979067607418E+01  1.69111316132213E+00
(PID.TID 0000.0001)  ploadbar=  1.01069598919453E+05
 cg2d: Sum(rhs),rhsMax =  -5.00751166754512E+01  1.71534788083358E+00
(PID.TID 0000.0001)  ploadbar=  1.01070367562217E+05
 cg2d: Sum(rhs),rhsMax =  -4.93106000967127E+01  1.74183116450656E+00
(PID.TID 0000.0001)  ploadbar=  1.01071136204981E+05
 cg2d: Sum(rhs),rhsMax =  -4.85017021614069E+01  1.77082460265190E+00
(PID.TID 0000.0001)  ploadbar=  1.01071904847746E+05
 cg2d: Sum(rhs),rhsMax =  -4.76435274736911E+01  1.80271051414554E+00
(PID.TID 0000.0001)  ploadbar=  1.01072673490510E+05
 cg2d: Sum(rhs),rhsMax =  -4.61758453007539E+01  1.85994629680156E+00
(PID.TID 0000.0001)  ploadbar=  1.01072580482623E+05
 cg2d: Sum(rhs),rhsMax =  -4.47782863979788E+01  1.91786831629670E+00
(PID.TID 0000.0001)  ploadbar=  1.01072487474737E+05
 cg2d: Sum(rhs),rhsMax =  -4.34759930942750E+01  1.97511211397447E+00
(PID.TID 0000.0001)  ploadbar=  1.01072394466850E+05
 cg2d: Sum(rhs),rhsMax =  -4.22677944155349E+01  2.03127423286763E+00
(PID.TID 0000.0001)  ploadbar=  1.01072301458963E+05
 cg2d: Sum(rhs),rhsMax =  -4.11409421727895E+01  2.08651442697130E+00
(PID.TID 0000.0001)  ploadbar=  1.01072208451077E+05
 cg2d: Sum(rhs),rhsMax =  -4.01012690437312E+01  2.14010042621063E+00
(PID.TID 0000.0001)  ploadbar=  1.01072115443190E+05
 cg2d: Sum(rhs),rhsMax =  -3.90854764494028E+01  2.19518923129151E+00
(PID.TID 0000.0001)  ploadbar=  1.01072022508781E+05
 cg2d: Sum(rhs),rhsMax =  -3.81974935502652E+01  2.24566312144167E+00
(PID.TID 0000.0001)  ploadbar=  1.01071929574373E+05
 cg2d: Sum(rhs),rhsMax =  -3.74292650489914E+01  2.29116533448103E+00
(PID.TID 0000.0001)  ploadbar=  1.01071836639964E+05
 cg2d: Sum(rhs),rhsMax =  -3.67694808769701E+01  2.33165192956555E+00
(PID.TID 0000.0001)  ploadbar=  1.01071743705555E+05
 cg2d: Sum(rhs),rhsMax =  -3.62047541554810E+01  2.36735720976664E+00
(PID.TID 0000.0001)  ploadbar=  1.01071650771147E+05
 cg2d: Sum(rhs),rhsMax =  -3.57300364293644E+01  2.39810075438608E+00
(PID.TID 0000.0001)  ploadbar=  1.01071557836738E+05
 cg2d: Sum(rhs),rhsMax =  -3.53031853771818E+01  2.42637993931752E+00
(PID.TID 0000.0001)  ploadbar=  1.01070657567954E+05
 cg2d: Sum(rhs),rhsMax =  -3.49384572718477E+01  2.45097662567295E+00
(PID.TID 0000.0001)  ploadbar=  1.01069757299170E+05
 cg2d: Sum(rhs),rhsMax =  -3.46156586053699E+01  2.47308118875102E+00
(PID.TID 0000.0001)  ploadbar=  1.01068857030386E+05
 cg2d: Sum(rhs),rhsMax =  -3.44017094244828E+01  2.48769158944470E+00
(PID.TID 0000.0001)  ploadbar=  1.01067956761602E+05
 cg2d: Sum(rhs),rhsMax =  -3.42093726450521E+01  2.50088808099239E+00
(PID.TID 0000.0001)  ploadbar=  1.01067056492818E+05
 cg2d: Sum(rhs),rhsMax =  -3.40551546106085E+01  2.51140399112104E+00
(PID.TID 0000.0001)  ploadbar=  1.01066156224034E+05
 cg2d: Sum(rhs),rhsMax =  -3.39223540204211E+01  2.52056465895074E+00
(PID.TID 0000.0001)  ploadbar=  1.01064661629086E+05
 cg2d: Sum(rhs),rhsMax =  -3.38247204115954E+01  2.52730714451330E+00
(PID.TID 0000.0001)  ploadbar=  1.01063167034138E+05
 cg2d: Sum(rhs),rhsMax =  -3.37798380991859E+01  2.53026843181523E+00
(PID.TID 0000.0001)  ploadbar=  1.01061672439190E+05
 cg2d: Sum(rhs),rhsMax =  -3.37867835696442E+01  2.52948131652447E+00
(PID.TID 0000.0001)  ploadbar=  1.01060177844242E+05
 cg2d: Sum(rhs),rhsMax =  -3.38459746429696E+01  2.52490564222758E+00
(PID.TID 0000.0001)  ploadbar=  1.01058683249294E+05
 cg2d: Sum(rhs),rhsMax =  -3.39590162972540E+01  2.51645255513966E+00
(PID.TID 0000.0001)  ploadbar=  1.01057188654347E+05
 cg2d: Sum(rhs),rhsMax =  -3.41080155232542E+01  2.50535925062690E+00
(PID.TID 0000.0001)  ploadbar=  1.01055772366905E+05
 cg2d: Sum(rhs),rhsMax =  -3.43205646520345E+01  2.48968297367695E+00
(PID.TID 0000.0001)  ploadbar=  1.01054356079463E+05
 cg2d: Sum(rhs),rhsMax =  -3.46141261036920E+01  2.46833539887102E+00
(PID.TID 0000.0001)  ploadbar=  1.01052939792021E+05
 cg2d: Sum(rhs),rhsMax =  -3.49813716926098E+01  2.44211576487601E+00
(PID.TID 0000.0001)  ploadbar=  1.01051523504579E+05
 cg2d: Sum(rhs),rhsMax =  -3.54377564820551E+01  2.41028341619182E+00
(PID.TID 0000.0001)  ploadbar=  1.01050107217137E+05
 cg2d: Sum(rhs),rhsMax =  -3.59572794782475E+01  2.37500130479274E+00
(PID.TID 0000.0001)  ploadbar=  1.01048690929695E+05
 cg2d: Sum(rhs),rhsMax =  -3.65526848775470E+01  2.33585223014387E+00
(PID.TID 0000.0001)  ploadbar=  1.01048052080934E+05
 cg2d: Sum(rhs),rhsMax =  -3.71220182473271E+01  2.29955543446257E+00
(PID.TID 0000.0001)  ploadbar=  1.01047413232173E+05
 cg2d: Sum(rhs),rhsMax =  -3.76626999172602E+01  2.26605927403598E+00
(PID.TID 0000.0001)  ploadbar=  1.01046774383412E+05
 cg2d: Sum(rhs),rhsMax =  -3.81918059514345E+01  2.23416340381056E+00
(PID.TID 0000.0001)  ploadbar=  1.01046135534651E+05
 cg2d: Sum(rhs),rhsMax =  -3.87389128106172E+01  2.20208309222855E+00
(PID.TID 0000.0001)  ploadbar=  1.01045496685890E+05
 cg2d: Sum(rhs),rhsMax =  -3.93339713997540E+01  2.16820744359521E+00
(PID.TID 0000.0001)  ploadbar=  1.01044857837130E+05
 cg2d: Sum(rhs),rhsMax =  -3.99799022466438E+01  2.13258778480207E+00
(PID.TID 0000.0001)  ploadbar=  1.01044223273188E+05
 cg2d: Sum(rhs),rhsMax =  -4.07318390501333E+01  2.09260133403457E+00
(PID.TID 0000.0001)  ploadbar=  1.01043588709246E+05
 cg2d: Sum(rhs),rhsMax =  -4.15662242364564E+01  2.04994372664531E+00
(PID.TID 0000.0001)  ploadbar=  1.01042954145305E+05
 cg2d: Sum(rhs),rhsMax =  -4.24440066801147E+01  2.00686273788399E+00
(PID.TID 0000.0001)  ploadbar=  1.01042319581363E+05
 cg2d: Sum(rhs),rhsMax =  -4.33382112345282E+01  1.96473296324621E+00
(PID.TID 0000.0001)  ploadbar=  1.01041685017422E+05
 cg2d: Sum(rhs),rhsMax =  -4.41405683579791E+01  1.92826090357011E+00
(PID.TID 0000.0001)  ploadbar=  1.01041050453480E+05
 cg2d: Sum(rhs),rhsMax =  -4.60986549685362E+01  1.84571151257181E+00
(PID.TID 0000.0001)  ploadbar=  1.01041634494518E+05
 cg2d: Sum(rhs),rhsMax =  -4.82675239598107E+01  1.76223700578204E+00
(PID.TID 0000.0001)  ploadbar=  1.01042218535556E+05
 cg2d: Sum(rhs),rhsMax =  -5.06921140359623E+01  1.67750751966029E+00
(PID.TID 0000.0001)  ploadbar=  1.01042802576595E+05
 cg2d: Sum(rhs),rhsMax =  -5.34121861994651E+01  1.59172254624331E+00
(PID.TID 0000.0001)  ploadbar=  1.01043386617633E+05
 cg2d: Sum(rhs),rhsMax =  -5.64136536119487E+01  1.50675071646740E+00
(PID.TID 0000.0001)  ploadbar=  1.01043970658671E+05
 cg2d: Sum(rhs),rhsMax =  -5.96524168654081E+01  1.42471776742789E+00
(PID.TID 0000.0001)  ploadbar=  1.01044554699709E+05
 cg2d: Sum(rhs),rhsMax =  -6.29507298932578E+01  1.34985433262899E+00
(PID.TID 0000.0001)  ploadbar=  1.01044040293573E+05
 cg2d: Sum(rhs),rhsMax =  -6.60824441652833E+01  1.28566749086961E+00
(PID.TID 0000.0001)  ploadbar=  1.01043525887437E+05
 cg2d: Sum(rhs),rhsMax =  -6.57620990458729E+01  1.29169876088884E+00
(PID.TID 0000.0001)  ploadbar=  1.01043011481300E+05
 cg2d: Sum(rhs),rhsMax =  -6.36881785581802E+01  1.33350286296923E+00
(PID.TID 0000.0001)  ploadbar=  1.01042497075164E+05
 cg2d: Sum(rhs),rhsMax =  -6.21268834731828E+01  1.36672666728113E+00
(PID.TID 0000.0001)  ploadbar=  1.01041982669028E+05
 cg2d: Sum(rhs),rhsMax =  -6.09933991561290E+01  1.39180627379595E+00
(PID.TID 0000.0001)  ploadbar=  1.01041468262891E+05
 cg2d: Sum(rhs),rhsMax =  -6.02551009433452E+01  1.40854511495263E+00
(PID.TID 0000.0001)  ploadbar=  1.01040898851457E+05
 cg2d: Sum(rhs),rhsMax =  -5.97133540061041E+01  1.42100959321358E+00
(PID.TID 0000.0001)  ploadbar=  1.01040329440023E+05
 cg2d: Sum(rhs),rhsMax =  -5.93112710347731E+01  1.43032475191034E+00
(PID.TID 0000.0001)  ploadbar=  1.01039760028590E+05
 cg2d: Sum(rhs),rhsMax =  -5.90124432967617E+01  1.43724138133700E+00
(PID.TID 0000.0001)  ploadbar=  1.01039190617156E+05
 cg2d: Sum(rhs),rhsMax =  -5.87931968029832E+01  1.44226126470403E+00
(PID.TID 0000.0001)  ploadbar=  1.01038621205722E+05
 cg2d: Sum(rhs),rhsMax =  -5.86425006071303E+01  1.44560912064467E+00
(PID.TID 0000.0001)  ploadbar=  1.01038051794288E+05
 cg2d: Sum(rhs),rhsMax =  -5.85461946858328E+01  1.44762550812034E+00
(PID.TID 0000.0001)  ploadbar=  1.01037918909047E+05
 cg2d: Sum(rhs),rhsMax =  -5.85357644863125E+01  1.44751442550779E+00
(PID.TID 0000.0001)  ploadbar=  1.01037786023807E+05
 cg2d: Sum(rhs),rhsMax =  -5.86155969522962E+01  1.44516305511199E+00
(PID.TID 0000.0001)  ploadbar=  1.01037653138566E+05
 cg2d: Sum(rhs),rhsMax =  -5.87507218288942E+01  1.44144646131970E+00
(PID.TID 0000.0001)  ploadbar=  1.01037520253326E+05
 cg2d: Sum(rhs),rhsMax =  -5.88930717210130E+01  1.43755657921392E+00
(PID.TID 0000.0001)  ploadbar=  1.01037387368086E+05
 cg2d: Sum(rhs),rhsMax =  -5.89542430585898E+01  1.43564320486625E+00
(PID.TID 0000.0001)  ploadbar=  1.01037254482845E+05
 cg2d: Sum(rhs),rhsMax =  -5.89482923417804E+01  1.43541356073828E+00
(PID.TID 0000.0001)  ploadbar=  1.01036891688356E+05
 cg2d: Sum(rhs),rhsMax =  -5.89620905040424E+01  1.43474852339982E+00
(PID.TID 0000.0001)  ploadbar=  1.01036528893866E+05
 cg2d: Sum(rhs),rhsMax =  -5.90228970803604E+01  1.43298424396276E+00
(PID.TID 0000.0001)  ploadbar=  1.01036166099377E+05
 cg2d: Sum(rhs),rhsMax =  -5.91498931024731E+01  1.42966139392640E+00
(PID.TID 0000.0001)  ploadbar=  1.01035803304887E+05
 cg2d: Sum(rhs),rhsMax =  -5.94380544253791E+01  1.42251893977685E+00
(PID.TID 0000.0001)  ploadbar=  1.01035440510398E+05
 cg2d: Sum(rhs),rhsMax =  -6.01144849858913E+01  1.40633125736948E+00
(PID.TID 0000.0001)  ploadbar=  1.01035077715908E+05
 cg2d: Sum(rhs),rhsMax =  -6.08317557614652E+01  1.38954618104525E+00
(PID.TID 0000.0001)  ploadbar=  1.01034456757164E+05
 cg2d: Sum(rhs),rhsMax =  -6.16048639223151E+01  1.37187672547986E+00
(PID.TID 0000.0001)  ploadbar=  1.01033835798419E+05
 cg2d: Sum(rhs),rhsMax =  -6.24427196388551E+01  1.35320685972136E+00
(PID.TID 0000.0001)  ploadbar=  1.01033214839674E+05
 cg2d: Sum(rhs),rhsMax =  -6.33402451827068E+01  1.33373872075363E+00
(PID.TID 0000.0001)  ploadbar=  1.01032593880930E+05
 cg2d: Sum(rhs),rhsMax =  -6.42943976508716E+01  1.31362148223960E+00
(PID.TID 0000.0001)  ploadbar=  1.01031972922185E+05
 cg2d: Sum(rhs),rhsMax =  -6.53063523273053E+01  1.29291034438736E+00
(PID.TID 0000.0001)  ploadbar=  1.01031351963441E+05
 cg2d: Sum(rhs),rhsMax =  -6.63954126525510E+01  1.27135480105244E+00
(PID.TID 0000.0001)  ploadbar=  1.01031400113219E+05
 cg2d: Sum(rhs),rhsMax =  -6.75364830796658E+01  1.24952941427778E+00
(PID.TID 0000.0001)  ploadbar=  1.01031448262997E+05
 cg2d: Sum(rhs),rhsMax =  -6.87114680467857E+01  1.22781692184951E+00
(PID.TID 0000.0001)  ploadbar=  1.01031496412776E+05
 cg2d: Sum(rhs),rhsMax =  -6.99193314835488E+01  1.20625975561721E+00
(PID.TID 0000.0001)  ploadbar=  1.01031544562554E+05
 cg2d: Sum(rhs),rhsMax =  -7.11496027150535E+01  1.18505171697042E+00
(PID.TID 0000.0001)  ploadbar=  1.01031592712332E+05
 cg2d: Sum(rhs),rhsMax =  -7.23884711478564E+01  1.16441429293489E+00
(PID.TID 0000.0001)  ploadbar=  1.01031640862110E+05
 cg2d: Sum(rhs),rhsMax =  -7.35823172558391E+01  1.14513976080704E+00
(PID.TID 0000.0001)  ploadbar=  1.01032188205096E+05
 cg2d: Sum(rhs),rhsMax =  -7.47268015592181E+01  1.12719160107403E+00
(PID.TID 0000.0001)  ploadbar=  1.01032735548082E+05
 cg2d: Sum(rhs),rhsMax =  -7.58192818576853E+01  1.11051176291253E+00
(PID.TID 0000.0001)  ploadbar=  1.01033282891068E+05
 cg2d: Sum(rhs),rhsMax =  -7.68550967052928E+01  1.09507712169189E+00
(PID.TID 0000.0001)  ploadbar=  1.01033830234054E+05
 cg2d: Sum(rhs),rhsMax =  -7.71173051890210E+01  1.09084984926570E+00
(PID.TID 0000.0001)  ploadbar=  1.01034377577040E+05
 cg2d: Sum(rhs),rhsMax =  -7.71393250732927E+01  1.08999742519112E+00
(PID.TID 0000.0001)  ploadbar=  1.01034924920025E+05
 cg2d: Sum(rhs),rhsMax =  -7.71633971534646E+01  1.08915206623784E+00
(PID.TID 0000.0001)  ploadbar=  1.01035054250421E+05
 cg2d: Sum(rhs),rhsMax =  -7.71873288100205E+01  1.08834338502790E+00
(PID.TID 0000.0001)  ploadbar=  1.01035183580817E+05
 cg2d: Sum(rhs),rhsMax =  -7.72090914344219E+01  1.08759713627031E+00
(PID.TID 0000.0001)  ploadbar=  1.01035312911213E+05
 cg2d: Sum(rhs),rhsMax =  -7.72251660143973E+01  1.08696013509197E+00
(PID.TID 0000.0001)  ploadbar=  1.01035442241609E+05
 cg2d: Sum(rhs),rhsMax =  -7.72349075159413E+01  1.08643840144999E+00
(PID.TID 0000.0001)  ploadbar=  1.01035571572006E+05
 cg2d: Sum(rhs),rhsMax =  -7.72416710017869E+01  1.08598078575978E+00
(PID.TID 0000.0001)  ploadbar=  1.01035700902401E+05
 cg2d: Sum(rhs),rhsMax =  -7.72596680262656E+01  1.08539228607510E+00
(PID.TID 0000.0001)  ploadbar=  1.01035811788439E+05
 cg2d: Sum(rhs),rhsMax =  -7.72697800429883E+01  1.08493562075644E+00
(PID.TID 0000.0001)  ploadbar=  1.01035922674476E+05
 cg2d: Sum(rhs),rhsMax =  -7.72847611925705E+01  1.08442806818746E+00
(PID.TID 0000.0001)  ploadbar=  1.01036033560513E+05
 cg2d: Sum(rhs),rhsMax =  -7.73015889418446E+01  1.08390690972043E+00
(PID.TID 0000.0001)  ploadbar=  1.01036144446550E+05
 cg2d: Sum(rhs),rhsMax =  -7.73198465807750E+01  1.08337545065849E+00
(PID.TID 0000.0001)  ploadbar=  1.01036255332587E+05
 cg2d: Sum(rhs),rhsMax =  -7.73396760011829E+01  1.08283062411668E+00
(PID.TID 0000.0001)  ploadbar=  1.01036366218624E+05
 cg2d: Sum(rhs),rhsMax =  -7.73824512283047E+01  1.08197003658431E+00
(PID.TID 0000.0001)  ploadbar=  1.01038101281333E+05
 cg2d: Sum(rhs),rhsMax =  -7.74209591240786E+01  1.08117425863088E+00
(PID.TID 0000.0001)  ploadbar=  1.01039836344042E+05
 cg2d: Sum(rhs),rhsMax =  -7.74588858100545E+01  1.08038933674136E+00
(PID.TID 0000.0001)  ploadbar=  1.01041571406750E+05
 cg2d: Sum(rhs),rhsMax =  -7.75026420138472E+01  1.07952203411625E+00
(PID.TID 0000.0001)  ploadbar=  1.01043306469459E+05
 cg2d: Sum(rhs),rhsMax =  -7.75392188401170E+01  1.07874953222559E+00
(PID.TID 0000.0001)  ploadbar=  1.01045041532168E+05
 cg2d: Sum(rhs),rhsMax =  -7.75710067050222E+01  1.07803480808765E+00
(PID.TID 0000.0001)  ploadbar=  1.01046776594877E+05
 cg2d: Sum(rhs),rhsMax =  -7.76095935185582E+01  1.07719274640544E+00
(PID.TID 0000.0001)  ploadbar=  1.01046879623631E+05
 cg2d: Sum(rhs),rhsMax =  -7.76383679978752E+01  1.07645066811201E+00
(PID.TID 0000.0001)  ploadbar=  1.01046982652385E+05
 cg2d: Sum(rhs),rhsMax =  -7.76495099460391E+01  1.07591346557002E+00
(PID.TID 0000.0001)  ploadbar=  1.01047085681140E+05
 cg2d: Sum(rhs),rhsMax =  -7.76488536832760E+01  1.07549767094088E+00
(PID.TID 0000.0001)  ploadbar=  1.01047188709894E+05
 cg2d: Sum(rhs),rhsMax =  -7.76352133592505E+01  1.07521694451742E+00
(PID.TID 0000.0001)  ploadbar=  1.01047291738649E+05
 cg2d: Sum(rhs),rhsMax =  -7.76102759015648E+01  1.07504552407397E+00
(PID.TID 0000.0001)  ploadbar=  1.01047394767403E+05
 cg2d: Sum(rhs),rhsMax =  -7.75597377837064E+01  1.07528396980544E+00
(PID.TID 0000.0001)  ploadbar=  1.01047500157859E+05
 cg2d: Sum(rhs),rhsMax =  -7.75064674414367E+01  1.07561373471185E+00
(PID.TID 0000.0001)  ploadbar=  1.01047605548315E+05
 cg2d: Sum(rhs),rhsMax =  -7.74557040713142E+01  1.07596080971476E+00
(PID.TID 0000.0001)  ploadbar=  1.01047710938770E+05
 cg2d: Sum(rhs),rhsMax =  -7.74041422492846E+01  1.07636825510360E+00
(PID.TID 0000.0001)  ploadbar=  1.01047816329226E+05
 cg2d: Sum(rhs),rhsMax =  -7.73520665235629E+01  1.07682920729455E+00
(PID.TID 0000.0001)  ploadbar=  1.01047921719682E+05
 cg2d: Sum(rhs),rhsMax =  -7.73010442604431E+01  1.07731681424441E+00
(PID.TID 0000.0001)  ploadbar=  1.01048027110138E+05
 cg2d: Sum(rhs),rhsMax =  -7.72457693603396E+01  1.07785748162387E+00
(PID.TID 0000.0001)  ploadbar=  1.01048286154831E+05
 cg2d: Sum(rhs),rhsMax =  -7.71989613514289E+01  1.07826366992985E+00
(PID.TID 0000.0001)  ploadbar=  1.01048545199525E+05
 cg2d: Sum(rhs),rhsMax =  -7.71495248112482E+01  1.07868586188131E+00
(PID.TID 0000.0001)  ploadbar=  1.01048804244218E+05
 cg2d: Sum(rhs),rhsMax =  -7.70977313547757E+01  1.07911793281360E+00
(PID.TID 0000.0001)  ploadbar=  1.01049063288911E+05
 cg2d: Sum(rhs),rhsMax =  -7.70460283271144E+01  1.07952262771104E+00
(PID.TID 0000.0001)  ploadbar=  1.01049322333605E+05
 cg2d: Sum(rhs),rhsMax =  -7.69934491122088E+01  1.07991087893517E+00
(PID.TID 0000.0001)  ploadbar=  1.01049581378298E+05
 cg2d: Sum(rhs),rhsMax =  -7.68277901583247E+01  1.08188959593664E+00
(PID.TID 0000.0001)  ploadbar=  1.01049121924585E+05
 cg2d: Sum(rhs),rhsMax =  -7.66677577457322E+01  1.08379430383235E+00
(PID.TID 0000.0001)  ploadbar=  1.01048662470872E+05
 cg2d: Sum(rhs),rhsMax =  -7.65015223964896E+01  1.08578874539433E+00
(PID.TID 0000.0001)  ploadbar=  1.01048203017159E+05
 cg2d: Sum(rhs),rhsMax =  -7.63300130074840E+01  1.08785622053170E+00
(PID.TID 0000.0001)  ploadbar=  1.01047743563447E+05
 cg2d: Sum(rhs),rhsMax =  -7.61591977092468E+01  1.08990695354631E+00
(PID.TID 0000.0001)  ploadbar=  1.01047284109734E+05
 cg2d: Sum(rhs),rhsMax =  -7.59896905307652E+01  1.09192603731897E+00
(PID.TID 0000.0001)  ploadbar=  1.01046824656021E+05
 cg2d: Sum(rhs),rhsMax =  -7.57864586311841E+01  1.09441447622017E+00
(PID.TID 0000.0001)  ploadbar=  1.01046882601928E+05
 cg2d: Sum(rhs),rhsMax =  -7.55761389195854E+01  1.09698930373876E+00
(PID.TID 0000.0001)  ploadbar=  1.01046940547836E+05
 cg2d: Sum(rhs),rhsMax =  -7.53664927887966E+01  1.09953622825011E+00
(PID.TID 0000.0001)  ploadbar=  1.01046998493743E+05
 cg2d: Sum(rhs),rhsMax =  -7.51550356173017E+01  1.10208897091342E+00
(PID.TID 0000.0001)  ploadbar=  1.01047056439651E+05
 cg2d: Sum(rhs),rhsMax =  -7.49373774303663E+01  1.10471087347659E+00
(PID.TID 0000.0001)  ploadbar=  1.01047114385558E+05
 cg2d: Sum(rhs),rhsMax =  -7.47103300315094E+01  1.10744927492820E+00
(PID.TID 0000.0001)  ploadbar=  1.01047172331466E+05
 cg2d: Sum(rhs),rhsMax =  -7.44919075515553E+01  1.11013494873725E+00
(PID.TID 0000.0001)  ploadbar=  1.01048164406128E+05
 cg2d: Sum(rhs),rhsMax =  -7.42771532272798E+01  1.11283745398915E+00
(PID.TID 0000.0001)  ploadbar=  1.01049156480791E+05
 cg2d: Sum(rhs),rhsMax =  -7.40784537964244E+01  1.11536804268781E+00
(PID.TID 0000.0001)  ploadbar=  1.01050148555453E+05
 cg2d: Sum(rhs),rhsMax =  -7.38927614668293E+01  1.11776631980648E+00
(PID.TID 0000.0001)  ploadbar=  1.01051140630116E+05
 cg2d: Sum(rhs),rhsMax =  -7.37208347152802E+01  1.12001487236998E+00
(PID.TID 0000.0001)  ploadbar=  1.01052132704778E+05
 cg2d: Sum(rhs),rhsMax =  -7.35651159718222E+01  1.12206890496701E+00
(PID.TID 0000.0001)  ploadbar=  1.01053124779440E+05
 cg2d: Sum(rhs),rhsMax =  -7.34655313451801E+01  1.12327596192368E+00
(PID.TID 0000.0001)  ploadbar=  1.01053902937000E+05
 cg2d: Sum(rhs),rhsMax =  -7.33710327626089E+01  1.12440496967493E+00
(PID.TID 0000.0001)  ploadbar=  1.01054681094559E+05
 cg2d: Sum(rhs),rhsMax =  -7.33179884548808E+01  1.12489060435799E+00
(PID.TID 0000.0001)  ploadbar=  1.01055459252118E+05
 cg2d: Sum(rhs),rhsMax =  -7.32960686674645E+01  1.12488427201620E+00
(PID.TID 0000.0001)  ploadbar=  1.01056237409677E+05
 cg2d: Sum(rhs),rhsMax =  -7.33040093900347E+01  1.12440207479743E+00
(PID.TID 0000.0001)  ploadbar=  1.01057015567237E+05
 cg2d: Sum(rhs),rhsMax =  -7.33471241272042E+01  1.12335883871837E+00
(PID.TID 0000.0001)  ploadbar=  1.01057793724796E+05
 cg2d: Sum(rhs),rhsMax =  -7.34813047954612E+01  1.12092871051608E+00
(PID.TID 0000.0001)  ploadbar=  1.01058624667408E+05
 cg2d: Sum(rhs),rhsMax =  -7.36293111506075E+01  1.11829598352215E+00
(PID.TID 0000.0001)  ploadbar=  1.01059455610021E+05
 cg2d: Sum(rhs),rhsMax =  -7.37943095452014E+01  1.11541410527733E+00
(PID.TID 0000.0001)  ploadbar=  1.01060286552634E+05
 cg2d: Sum(rhs),rhsMax =  -7.39837682275026E+01  1.11217092457773E+00
(PID.TID 0000.0001)  ploadbar=  1.01061117495246E+05
 cg2d: Sum(rhs),rhsMax =  -7.41914430596486E+01  1.10866054620592E+00
(PID.TID 0000.0001)  ploadbar=  1.01061948437859E+05
 cg2d: Sum(rhs),rhsMax =  -7.44087040534756E+01  1.10500948900182E+00
(PID.TID 0000.0001)  ploadbar=  1.01062779380471E+05
 cg2d: Sum(rhs),rhsMax =  -7.46680165937311E+01  1.10073938373717E+00
(PID.TID 0000.0001)  ploadbar=  1.01063156302305E+05
 cg2d: Sum(rhs),rhsMax =  -7.49331758682746E+01  1.09638973498985E+00
(PID.TID 0000.0001)  ploadbar=  1.01063533224138E+05
 cg2d: Sum(rhs),rhsMax =  -7.51872120969229E+01  1.09220709799266E+00
(PID.TID 0000.0001)  ploadbar=  1.01063910145971E+05
 cg2d: Sum(rhs),rhsMax =  -7.54464836232702E+01  1.08795056896766E+00
(PID.TID 0000.0001)  ploadbar=  1.01064287067805E+05
 cg2d: Sum(rhs),rhsMax =  -7.57106567319780E+01  1.08362536384031E+00
(PID.TID 0000.0001)  ploadbar=  1.01064663989638E+05
 cg2d: Sum(rhs),rhsMax =  -7.59781885860070E+01  1.07925321461887E+00
(PID.TID 0000.0001)  ploadbar=  1.01065040911472E+05
 cg2d: Sum(rhs),rhsMax =  -7.62268063884153E+01  1.07524856688675E+00
(PID.TID 0000.0001)  ploadbar=  1.01066900075468E+05
 cg2d: Sum(rhs),rhsMax =  -7.64869293345766E+01  1.07117605314615E+00
(PID.TID 0000.0001)  ploadbar=  1.01068759239464E+05
 cg2d: Sum(rhs),rhsMax =  -7.67589256555111E+01  1.06702915707884E+00
(PID.TID 0000.0001)  ploadbar=  1.01070618403460E+05
 cg2d: Sum(rhs),rhsMax =  -7.70544942426511E+01  1.06264537274723E+00
(PID.TID 0000.0001)  ploadbar=  1.01072477567456E+05
 cg2d: Sum(rhs),rhsMax =  -7.73794100247097E+01  1.05794958636129E+00
(PID.TID 0000.0001)  ploadbar=  1.01074336731452E+05
 cg2d: Sum(rhs),rhsMax =  -7.77361518375102E+01  1.05291163752068E+00
(PID.TID 0000.0001)  ploadbar=  1.01076195895449E+05
 cg2d: Sum(rhs),rhsMax =  -7.81647470835291E+01  1.04695397645563E+00
(PID.TID 0000.0001)  ploadbar=  1.01076673255674E+05
 cg2d: Sum(rhs),rhsMax =  -7.80834412913330E+01  1.04784946537032E+00
(PID.TID 0000.0001)  ploadbar=  1.01077150615898E+05
 cg2d: Sum(rhs),rhsMax =  -7.75757222240782E+01  1.05449682090689E+00
(PID.TID 0000.0001)  ploadbar=  1.01077627976123E+05
 cg2d: Sum(rhs),rhsMax =  -7.70275702360010E+01  1.06177228524086E+00
(PID.TID 0000.0001)  ploadbar=  1.01078105336348E+05
 cg2d: Sum(rhs),rhsMax =  -7.64629049276702E+01  1.06936258963550E+00
(PID.TID 0000.0001)  ploadbar=  1.01078582696573E+05
 cg2d: Sum(rhs),rhsMax =  -7.59009778528763E+01  1.07700470764159E+00
(PID.TID 0000.0001)  ploadbar=  1.01079060056798E+05
 cg2d: Sum(rhs),rhsMax =  -7.53589121730515E+01  1.08450950807338E+00
(PID.TID 0000.0001)  ploadbar=  1.01078337724003E+05
 cg2d: Sum(rhs),rhsMax =  -7.48554111677701E+01  1.09159273208583E+00
(PID.TID 0000.0001)  ploadbar=  1.01077615391208E+05
 cg2d: Sum(rhs),rhsMax =  -7.43791010624829E+01  1.09840042126995E+00
(PID.TID 0000.0001)  ploadbar=  1.01076893058414E+05
 cg2d: Sum(rhs),rhsMax =  -7.39327935535298E+01  1.10487505871509E+00
(PID.TID 0000.0001)  ploadbar=  1.01076170725619E+05
 cg2d: Sum(rhs),rhsMax =  -7.35272805053858E+01  1.11083698684067E+00
(PID.TID 0000.0001)  ploadbar=  1.01075448392824E+05
 cg2d: Sum(rhs),rhsMax =  -7.31967166184517E+01  1.11574317352949E+00
(PID.TID 0000.0001)  ploadbar=  1.01074726060030E+05
 cg2d: Sum(rhs),rhsMax =  -7.29093583647821E+01  1.12001474102421E+00
(PID.TID 0000.0001)  ploadbar=  1.01074970455422E+05
 cg2d: Sum(rhs),rhsMax =  -7.26702838930419E+01  1.12355662745191E+00
(PID.TID 0000.0001)  ploadbar=  1.01075214850815E+05
 cg2d: Sum(rhs),rhsMax =  -7.24461458005045E+01  1.12687160557142E+00
(PID.TID 0000.0001)  ploadbar=  1.01075459246208E+05
 cg2d: Sum(rhs),rhsMax =  -7.22586432121932E+01  1.12961583083488E+00
(PID.TID 0000.0001)  ploadbar=  1.01075703641601E+05
 cg2d: Sum(rhs),rhsMax =  -7.21157336614985E+01  1.13165386730175E+00
(PID.TID 0000.0001)  ploadbar=  1.01075948036993E+05
 cg2d: Sum(rhs),rhsMax =  -7.20229859494829E+01  1.13288969732251E+00
(PID.TID 0000.0001)  ploadbar=  1.01076192432386E+05
 cg2d: Sum(rhs),rhsMax =  -7.19273149166621E+01  1.13422923522730E+00
(PID.TID 0000.0001)  ploadbar=  1.01076601434197E+05
 cg2d: Sum(rhs),rhsMax =  -7.19213851605551E+01  1.13420957038690E+00
(PID.TID 0000.0001)  ploadbar=  1.01077010436009E+05
 cg2d: Sum(rhs),rhsMax =  -7.20058081556428E+01  1.13281972336405E+00
(PID.TID 0000.0001)  ploadbar=  1.01077419437820E+05
 cg2d: Sum(rhs),rhsMax =  -7.21869839377364E+01  1.12996685697809E+00
(PID.TID 0000.0001)  ploadbar=  1.01077828439631E+05
 cg2d: Sum(rhs),rhsMax =  -7.24617390325018E+01  1.12571861515932E+00
(PID.TID 0000.0001)  ploadbar=  1.01078237441442E+05
 cg2d: Sum(rhs),rhsMax =  -7.28045144156052E+01  1.12049664276272E+00
(PID.TID 0000.0001)  ploadbar=  1.01078646443254E+05
 cg2d: Sum(rhs),rhsMax =  -7.32851500710982E+01  1.11319902848727E+00
(PID.TID 0000.0001)  ploadbar=  1.01078984630535E+05
 cg2d: Sum(rhs),rhsMax =  -7.37813931020273E+01  1.10573335428618E+00
(PID.TID 0000.0001)  ploadbar=  1.01079322817817E+05
 cg2d: Sum(rhs),rhsMax =  -7.42768288325958E+01  1.09835101087635E+00
(PID.TID 0000.0001)  ploadbar=  1.01079661005098E+05
 cg2d: Sum(rhs),rhsMax =  -7.47596911041104E+01  1.09122191427980E+00
(PID.TID 0000.0001)  ploadbar=  1.01079999192380E+05
 cg2d: Sum(rhs),rhsMax =  -7.52140758451515E+01  1.08456634635441E+00
(PID.TID 0000.0001)  ploadbar=  1.01080337379662E+05
 cg2d: Sum(rhs),rhsMax =  -7.56271015483364E+01  1.07855353002139E+00
(PID.TID 0000.0001)  ploadbar=  1.01080675566943E+05
 cg2d: Sum(rhs),rhsMax =  -7.59674689929384E+01  1.07364351092364E+00
(PID.TID 0000.0001)  ploadbar=  1.01080942046733E+05
 cg2d: Sum(rhs),rhsMax =  -7.62692294594849E+01  1.06932381863819E+00
(PID.TID 0000.0001)  ploadbar=  1.01081208526523E+05
 cg2d: Sum(rhs),rhsMax =  -7.65668697708739E+01  1.06509987073887E+00
(PID.TID 0000.0001)  ploadbar=  1.01081475006313E+05
 cg2d: Sum(rhs),rhsMax =  -7.68611571804765E+01  1.06095648332670E+00
(PID.TID 0000.0001)  ploadbar=  1.01081741486103E+05
 cg2d: Sum(rhs),rhsMax =  -7.71481784120879E+01  1.05694347543421E+00
(PID.TID 0000.0001)  ploadbar=  1.01082007965892E+05
 cg2d: Sum(rhs),rhsMax =  -7.74198556125780E+01  1.05316624395155E+00
(PID.TID 0000.0001)  ploadbar=  1.01082274445682E+05
 cg2d: Sum(rhs),rhsMax =  -7.76941177277912E+01  1.04934162781337E+00
(PID.TID 0000.0001)  ploadbar=  1.01082266736926E+05
 cg2d: Sum(rhs),rhsMax =  -7.79082228019599E+01  1.04631265920991E+00
(PID.TID 0000.0001)  ploadbar=  1.01082259028169E+05
 cg2d: Sum(rhs),rhsMax =  -7.80709403469555E+01  1.04394722219237E+00
(PID.TID 0000.0001)  ploadbar=  1.01082251319413E+05
 cg2d: Sum(rhs),rhsMax =  -7.81717000833214E+01  1.04237664602686E+00
(PID.TID 0000.0001)  ploadbar=  1.01082243610656E+05
 cg2d: Sum(rhs),rhsMax =  -7.82058954898070E+01  1.04165511092892E+00
(PID.TID 0000.0001)  ploadbar=  1.01082235901899E+05
 cg2d: Sum(rhs),rhsMax =  -7.81744420022931E+01  1.04176783060744E+00
(PID.TID 0000.0001)  ploadbar=  1.01082228193143E+05
 cg2d: Sum(rhs),rhsMax =  -7.80605835209176E+01  1.04301945297666E+00
(PID.TID 0000.0001)  ploadbar=  1.01082329589709E+05
 cg2d: Sum(rhs),rhsMax =  -7.78854343546196E+01  1.04513580314218E+00
(PID.TID 0000.0001)  ploadbar=  1.01082430986276E+05
 cg2d: Sum(rhs),rhsMax =  -7.76518543366587E+01  1.04808788432211E+00
(PID.TID 0000.0001)  ploadbar=  1.01082532382842E+05
 cg2d: Sum(rhs),rhsMax =  -7.73774044234061E+01  1.05164987561162E+00
(PID.TID 0000.0001)  ploadbar=  1.01082633779408E+05
 cg2d: Sum(rhs),rhsMax =  -7.70806425978912E+01  1.05557576649553E+00
(PID.TID 0000.0001)  ploadbar=  1.01082735175975E+05
 cg2d: Sum(rhs),rhsMax =  -7.72987024063920E+01  1.05250307234979E+00
(PID.TID 0000.0001)  ploadbar=  1.01082836572541E+05
 cg2d: Sum(rhs),rhsMax =  -7.76094653747990E+01  1.04816824590672E+00
(PID.TID 0000.0001)  ploadbar=  1.01083444578217E+05
 cg2d: Sum(rhs),rhsMax =  -7.79482305787344E+01  1.04346730856061E+00
(PID.TID 0000.0001)  ploadbar=  1.01084052583893E+05
 cg2d: Sum(rhs),rhsMax =  -7.83407987842497E+01  1.03806741430642E+00
(PID.TID 0000.0001)  ploadbar=  1.01084660589570E+05
 cg2d: Sum(rhs),rhsMax =  -7.87979224102221E+01  1.03184727509309E+00
(PID.TID 0000.0001)  ploadbar=  1.01085268595246E+05
 cg2d: Sum(rhs),rhsMax =  -7.93238199637345E+01  1.02477977519981E+00
(PID.TID 0000.0001)  ploadbar=  1.01085876600922E+05
 cg2d: Sum(rhs),rhsMax =  -7.99181933058543E+01  1.01690168202337E+00
(PID.TID 0000.0001)  ploadbar=  1.01086484606599E+05
 cg2d: Sum(rhs),rhsMax =  -8.05541371827628E+01  1.00863767720571E+00
(PID.TID 0000.0001)  ploadbar=  1.01087368950073E+05
 cg2d: Sum(rhs),rhsMax =  -8.11691909089827E+01  1.00077482217439E+00
(PID.TID 0000.0001)  ploadbar=  1.01088253293547E+05
 cg2d: Sum(rhs),rhsMax =  -8.17420033786750E+01  9.93553913560670E-01
(PID.TID 0000.0001)  ploadbar=  1.01089137637021E+05
 cg2d: Sum(rhs),rhsMax =  -8.13954052335162E+01  9.97583786498865E-01
(PID.TID 0000.0001)  ploadbar=  1.01090021980495E+05
 cg2d: Sum(rhs),rhsMax =  -8.09248645646155E+01  1.00318695968722E+00
(PID.TID 0000.0001)  ploadbar=  1.01090906323968E+05
 cg2d: Sum(rhs),rhsMax =  -8.05627168723447E+01  1.00750003206174E+00
(PID.TID 0000.0001)  ploadbar=  1.01091790667442E+05
 cg2d: Sum(rhs),rhsMax =  -8.02956075731512E+01  1.01062426285302E+00
(PID.TID 0000.0001)  ploadbar=  1.01091554231372E+05
 cg2d: Sum(rhs),rhsMax =  -8.00863853372480E+01  1.01300192858475E+00
(PID.TID 0000.0001)  ploadbar=  1.01091317795302E+05
 cg2d: Sum(rhs),rhsMax =  -7.99464493420333E+01  1.01447391627129E+00
(PID.TID 0000.0001)  ploadbar=  1.01091081359231E+05
 cg2d: Sum(rhs),rhsMax =  -7.98698827731095E+01  1.01510498564661E+00
(PID.TID 0000.0001)  ploadbar=  1.01090844923161E+05
 cg2d: Sum(rhs),rhsMax =  -7.98423943474416E+01  1.01507154505085E+00
(PID.TID 0000.0001)  ploadbar=  1.01090608487090E+05
 cg2d: Sum(rhs),rhsMax =  -7.98587363869258E+01  1.01443841788433E+00
(PID.TID 0000.0001)  ploadbar=  1.01090372051020E+05
 cg2d: Sum(rhs),rhsMax =  -7.98569780483804E+01  1.01409381396817E+00
(PID.TID 0000.0001)  ploadbar=  1.01089377493088E+05
 cg2d: Sum(rhs),rhsMax =  -7.98461689783604E+01  1.01392034253642E+00
(PID.TID 0000.0001)  ploadbar=  1.01088382935156E+05
 cg2d: Sum(rhs),rhsMax =  -7.97947758650343E+01  1.01431657380577E+00
(PID.TID 0000.0001)  ploadbar=  1.01087388377225E+05
 cg2d: Sum(rhs),rhsMax =  -7.96798598547151E+01  1.01557276906318E+00
(PID.TID 0000.0001)  ploadbar=  1.01086393819293E+05
 cg2d: Sum(rhs),rhsMax =  -7.95064560369825E+01  1.01762547874898E+00
(PID.TID 0000.0001)  ploadbar=  1.01085399261361E+05
 cg2d: Sum(rhs),rhsMax =  -7.92889404636101E+01  1.02029425776006E+00
(PID.TID 0000.0001)  ploadbar=  1.01084404703429E+05
 cg2d: Sum(rhs),rhsMax =  -7.90444691446260E+01  1.02325797946832E+00
(PID.TID 0000.0001)  ploadbar=  1.01083918165940E+05
 cg2d: Sum(rhs),rhsMax =  -7.87427890535591E+01  1.02691465757962E+00
(PID.TID 0000.0001)  ploadbar=  1.01083431628450E+05
 cg2d: Sum(rhs),rhsMax =  -7.83997511038655E+01  1.03107053301725E+00
(PID.TID 0000.0001)  ploadbar=  1.01082945090961E+05
 cg2d: Sum(rhs),rhsMax =  -7.80475856802103E+01  1.03530951605243E+00
(PID.TID 0000.0001)  ploadbar=  1.01082458553471E+05
 cg2d: Sum(rhs),rhsMax =  -7.76933372136013E+01  1.03953873756213E+00
(PID.TID 0000.0001)  ploadbar=  1.01081972015982E+05
 cg2d: Sum(rhs),rhsMax =  -7.73366743941886E+01  1.04376082986127E+00
(PID.TID 0000.0001)  ploadbar=  1.01081485478492E+05
 cg2d: Sum(rhs),rhsMax =  -7.69844785126531E+01  1.04800165474081E+00
(PID.TID 0000.0001)  ploadbar=  1.01080887656985E+05
 cg2d: Sum(rhs),rhsMax =  -7.66654539827924E+01  1.05186115577104E+00
(PID.TID 0000.0001)  ploadbar=  1.01080289835479E+05
 cg2d: Sum(rhs),rhsMax =  -7.63529029565316E+01  1.05569393573008E+00
(PID.TID 0000.0001)  ploadbar=  1.01079692013972E+05
 cg2d: Sum(rhs),rhsMax =  -7.60514387043297E+01  1.05943175932752E+00
(PID.TID 0000.0001)  ploadbar=  1.01079094192465E+05
 cg2d: Sum(rhs),rhsMax =  -7.57682680592015E+01  1.06296576423917E+00
(PID.TID 0000.0001)  ploadbar=  1.01078496370958E+05
 cg2d: Sum(rhs),rhsMax =  -7.55052441639205E+01  1.06625961965199E+00
(PID.TID 0000.0001)  ploadbar=  1.01077898549452E+05
 cg2d: Sum(rhs),rhsMax =  -7.52886517192389E+01  1.06887959906507E+00
(PID.TID 0000.0001)  ploadbar=  1.01078037262684E+05
 cg2d: Sum(rhs),rhsMax =  -7.50983306850093E+01  1.07109964306693E+00
(PID.TID 0000.0001)  ploadbar=  1.01078175975916E+05
 cg2d: Sum(rhs),rhsMax =  -7.49130593936190E+01  1.07321678541931E+00
(PID.TID 0000.0001)  ploadbar=  1.01078314689148E+05
 cg2d: Sum(rhs),rhsMax =  -7.47417937572303E+01  1.07509938103388E+00
(PID.TID 0000.0001)  ploadbar=  1.01078453402380E+05
 cg2d: Sum(rhs),rhsMax =  -7.45846100295788E+01  1.07674169625351E+00
(PID.TID 0000.0001)  ploadbar=  1.01078592115613E+05
 cg2d: Sum(rhs),rhsMax =  -7.44443892284385E+01  1.07809838115122E+00
(PID.TID 0000.0001)  ploadbar=  1.01078730828845E+05
 cg2d: Sum(rhs),rhsMax =  -7.42947948412121E+01  1.07965242727522E+00
(PID.TID 0000.0001)  ploadbar=  1.01077496404402E+05
 cg2d: Sum(rhs),rhsMax =  -7.41694266844847E+01  1.08091525033708E+00
(PID.TID 0000.0001)  ploadbar=  1.01076261979958E+05
 cg2d: Sum(rhs),rhsMax =  -7.40597322272917E+01  1.08200786371004E+00
(PID.TID 0000.0001)  ploadbar=  1.01075027555515E+05
 cg2d: Sum(rhs),rhsMax =  -7.39653975920358E+01  1.08293037379809E+00
(PID.TID 0000.0001)  ploadbar=  1.01073793131072E+05
 cg2d: Sum(rhs),rhsMax =  -7.38847324874830E+01  1.08370270708006E+00
(PID.TID 0000.0001)  ploadbar=  1.01072558706628E+05
 cg2d: Sum(rhs),rhsMax =  -7.38181742656040E+01  1.08431342905391E+00
(PID.TID 0000.0001)  ploadbar=  1.01071324282185E+05
 cg2d: Sum(rhs),rhsMax =  -7.37696009726747E+01  1.08466254010744E+00
(PID.TID 0000.0001)  ploadbar=  1.01071836258937E+05
 cg2d: Sum(rhs),rhsMax =  -7.37223704208949E+01  1.08499150950496E+00
(PID.TID 0000.0001)  ploadbar=  1.01072348235689E+05
 cg2d: Sum(rhs),rhsMax =  -7.36800292281255E+01  1.08524536405998E+00
(PID.TID 0000.0001)  ploadbar=  1.01072860212442E+05
 cg2d: Sum(rhs),rhsMax =  -7.36374329646937E+01  1.08549581378837E+00
(PID.TID 0000.0001)  ploadbar=  1.01073372189194E+05
 cg2d: Sum(rhs),rhsMax =  -7.35913921324740E+01  1.08578618205115E+00
(PID.TID 0000.0001)  ploadbar=  1.01073884165946E+05
 cg2d: Sum(rhs),rhsMax =  -7.35413826304641E+01  1.08612105668184E+00
(PID.TID 0000.0001)  ploadbar=  1.01074396142698E+05
 cg2d: Sum(rhs),rhsMax =  -7.34946745685256E+01  1.08643676752798E+00
(PID.TID 0000.0001)  ploadbar=  1.01076214073284E+05
 cg2d: Sum(rhs),rhsMax =  -7.34463768441862E+01  1.08680103709974E+00
(PID.TID 0000.0001)  ploadbar=  1.01078032003870E+05
 cg2d: Sum(rhs),rhsMax =  -7.33985264045366E+01  1.08717958948002E+00
(PID.TID 0000.0001)  ploadbar=  1.01079849934456E+05
 cg2d: Sum(rhs),rhsMax =  -7.33543629385357E+01  1.08751972653199E+00
(PID.TID 0000.0001)  ploadbar=  1.01081667865042E+05
 cg2d: Sum(rhs),rhsMax =  -7.33123717741235E+01  1.08784001406717E+00
(PID.TID 0000.0001)  ploadbar=  1.01083485795629E+05
 cg2d: Sum(rhs),rhsMax =  -7.32727741165253E+01  1.08813281147341E+00
(PID.TID 0000.0001)  ploadbar=  1.01085303726215E+05
 cg2d: Sum(rhs),rhsMax =  -7.32710040315349E+01  1.08785292554774E+00
(PID.TID 0000.0001)  ploadbar=  1.01085579519652E+05
 cg2d: Sum(rhs),rhsMax =  -7.32739592859307E+01  1.08748996490549E+00
(PID.TID 0000.0001)  ploadbar=  1.01085855313089E+05
 cg2d: Sum(rhs),rhsMax =  -7.32747076630138E+01  1.08714596801721E+00
(PID.TID 0000.0001)  ploadbar=  1.01086131106526E+05
 cg2d: Sum(rhs),rhsMax =  -7.32760051833758E+01  1.08677931956420E+00
(PID.TID 0000.0001)  ploadbar=  1.01086406899963E+05
 cg2d: Sum(rhs),rhsMax =  -7.32778642474851E+01  1.08638919863241E+00
(PID.TID 0000.0001)  ploadbar=  1.01086682693400E+05
 cg2d: Sum(rhs),rhsMax =  -7.32811173401152E+01  1.08596495728061E+00
(PID.TID 0000.0001)  ploadbar=  1.01086958486837E+05
 cg2d: Sum(rhs),rhsMax =  -7.32726025681025E+01  1.08576263785189E+00
(PID.TID 0000.0001)  ploadbar=  1.01087771102374E+05
 cg2d: Sum(rhs),rhsMax =  -7.32750589524957E+01  1.08544342710075E+00
(PID.TID 0000.0001)  ploadbar=  1.01088583717910E+05
 cg2d: Sum(rhs),rhsMax =  -7.32848246748725E+01  1.08506181301347E+00
(PID.TID 0000.0001)  ploadbar=  1.01089396333447E+05
 cg2d: Sum(rhs),rhsMax =  -7.33031284224867E+01  1.08459671045087E+00
(PID.TID 0000.0001)  ploadbar=  1.01090208948983E+05
 cg2d: Sum(rhs),rhsMax =  -7.33312647011288E+01  1.08402379194513E+00
(PID.TID 0000.0001)  ploadbar=  1.01091021564520E+05
 cg2d: Sum(rhs),rhsMax =  -7.33698973789539E+01  1.08332874284595E+00
(PID.TID 0000.0001)  ploadbar=  1.01091834180056E+05
 cg2d: Sum(rhs),rhsMax =  -7.34269815248436E+01  1.08234175549458E+00
(PID.TID 0000.0001)  ploadbar=  1.01091599692257E+05
 cg2d: Sum(rhs),rhsMax =  -7.34935796497222E+01  1.08119501492477E+00
(PID.TID 0000.0001)  ploadbar=  1.01091365204457E+05
 cg2d: Sum(rhs),rhsMax =  -7.35666116647826E+01  1.07993102488259E+00
(PID.TID 0000.0001)  ploadbar=  1.01091130716658E+05
 cg2d: Sum(rhs),rhsMax =  -7.36425993440424E+01  1.07859623076752E+00
(PID.TID 0000.0001)  ploadbar=  1.01090896228858E+05
 cg2d: Sum(rhs),rhsMax =  -7.37133132089337E+01  1.07731058355333E+00
(PID.TID 0000.0001)  ploadbar=  1.01090661741058E+05
 cg2d: Sum(rhs),rhsMax =  -7.37756746840594E+01  1.07611498213310E+00
(PID.TID 0000.0001)  ploadbar=  1.01090427253259E+05
 cg2d: Sum(rhs),rhsMax =  -7.37875250061895E+01  1.07566131538197E+00
(PID.TID 0000.0001)  ploadbar=  1.01090176463633E+05
 cg2d: Sum(rhs),rhsMax =  -7.37920336406775E+01  1.07531571992096E+00
(PID.TID 0000.0001)  ploadbar=  1.01089925674008E+05
 cg2d: Sum(rhs),rhsMax =  -7.37957831534044E+01  1.07498188060837E+00
(PID.TID 0000.0001)  ploadbar=  1.01089674884383E+05
 cg2d: Sum(rhs),rhsMax =  -7.37952086093515E+01  1.07471006491786E+00
(PID.TID 0000.0001)  ploadbar=  1.01089424094757E+05
 cg2d: Sum(rhs),rhsMax =  -7.37918679012268E+01  1.07447580445863E+00
(PID.TID 0000.0001)  ploadbar=  1.01089173305132E+05
 cg2d: Sum(rhs),rhsMax =  -7.31470311901222E+01  1.08365418635832E+00
(PID.TID 0000.0001)  ploadbar=  1.01088922515506E+05
 cg2d: Sum(rhs),rhsMax =  -7.25341207203085E+01  1.09246425296523E+00
(PID.TID 0000.0001)  ploadbar=  1.01088480963382E+05
 cg2d: Sum(rhs),rhsMax =  -7.19807977282562E+01  1.10045950776043E+00
(PID.TID 0000.0001)  ploadbar=  1.01088039411259E+05
 cg2d: Sum(rhs),rhsMax =  -7.13821460432197E+01  1.10922849015956E+00
(PID.TID 0000.0001)  ploadbar=  1.01087597859135E+05
 cg2d: Sum(rhs),rhsMax =  -7.08513098633555E+01  1.11702086712914E+00
(PID.TID 0000.0001)  ploadbar=  1.01087156307011E+05
 cg2d: Sum(rhs),rhsMax =  -7.03939602856707E+01  1.12370225705445E+00
(PID.TID 0000.0001)  ploadbar=  1.01086714754887E+05
 cg2d: Sum(rhs),rhsMax =  -7.00668682104967E+01  1.12831284527457E+00
(PID.TID 0000.0001)  ploadbar=  1.01086273202763E+05
 cg2d: Sum(rhs),rhsMax =  -6.96636018654708E+01  1.13425385155103E+00
(PID.TID 0000.0001)  ploadbar=  1.01087339906479E+05
 cg2d: Sum(rhs),rhsMax =  -6.91170949414694E+01  1.14267581871448E+00
(PID.TID 0000.0001)  ploadbar=  1.01088406610195E+05
 cg2d: Sum(rhs),rhsMax =  -6.83578333746085E+01  1.15486467055284E+00
(PID.TID 0000.0001)  ploadbar=  1.01089473313911E+05
 cg2d: Sum(rhs),rhsMax =  -6.73101468651879E+01  1.17237614628008E+00
(PID.TID 0000.0001)  ploadbar=  1.01090540017628E+05
 cg2d: Sum(rhs),rhsMax =  -6.59535382735443E+01  1.19605843093039E+00
(PID.TID 0000.0001)  ploadbar=  1.01091606721344E+05
 cg2d: Sum(rhs),rhsMax =  -6.43311139367639E+01  1.22581388525465E+00
(PID.TID 0000.0001)  ploadbar=  1.01092673425060E+05
 cg2d: Sum(rhs),rhsMax =  -6.24887989794398E+01  1.26151464371086E+00
(PID.TID 0000.0001)  ploadbar=  1.01093439800319E+05
 cg2d: Sum(rhs),rhsMax =  -6.06898665404577E+01  1.29843356515282E+00
(PID.TID 0000.0001)  ploadbar=  1.01094206175578E+05
 cg2d: Sum(rhs),rhsMax =  -5.90462752879650E+01  1.33405960615159E+00
(PID.TID 0000.0001)  ploadbar=  1.01094972550837E+05
 cg2d: Sum(rhs),rhsMax =  -5.76024339434754E+01  1.36693282315398E+00
(PID.TID 0000.0001)  ploadbar=  1.01095738926096E+05
 cg2d: Sum(rhs),rhsMax =  -5.63732471957227E+01  1.39611871235875E+00
(PID.TID 0000.0001)  ploadbar=  1.01096505301355E+05
 cg2d: Sum(rhs),rhsMax =  -5.55128355878565E+01  1.41708285116116E+00
(PID.TID 0000.0001)  ploadbar=  1.01097271676614E+05
 cg2d: Sum(rhs),rhsMax =  -5.48079510649477E+01  1.43466391564122E+00
(PID.TID 0000.0001)  ploadbar=  1.01098038292916E+05
 cg2d: Sum(rhs),rhsMax =  -5.43591122983952E+01  1.44589776907665E+00
(PID.TID 0000.0001)  ploadbar=  1.01098804909217E+05
 cg2d: Sum(rhs),rhsMax =  -5.42755164395631E+01  1.44754545662085E+00
(PID.TID 0000.0001)  ploadbar=  1.01099571525519E+05
 cg2d: Sum(rhs),rhsMax =  -5.45259538433985E+01  1.44035194443619E+00
(PID.TID 0000.0001)  ploadbar=  1.01100338141820E+05
 cg2d: Sum(rhs),rhsMax =  -5.50367200342810E+01  1.42647168151502E+00
(PID.TID 0000.0001)  ploadbar=  1.01101104758122E+05
 cg2d: Sum(rhs),rhsMax =  -5.55355111354283E+01  1.41317040557490E+00
(PID.TID 0000.0001)  ploadbar=  1.01101871374423E+05
 cg2d: Sum(rhs),rhsMax =  -5.60109887849154E+01  1.40069385612718E+00
(PID.TID 0000.0001)  ploadbar=  1.01103290491945E+05
 cg2d: Sum(rhs),rhsMax =  -5.64800787268907E+01  1.38858691984358E+00
(PID.TID 0000.0001)  ploadbar=  1.01104709609467E+05
 cg2d: Sum(rhs),rhsMax =  -5.69494333065549E+01  1.37667302397348E+00
(PID.TID 0000.0001)  ploadbar=  1.01106128726988E+05
 cg2d: Sum(rhs),rhsMax =  -5.74168492873671E+01  1.36499823040663E+00
(PID.TID 0000.0001)  ploadbar=  1.01107547844510E+05
 cg2d: Sum(rhs),rhsMax =  -5.78791688169654E+01  1.35362766536088E+00
(PID.TID 0000.0001)  ploadbar=  1.01108966962032E+05
 cg2d: Sum(rhs),rhsMax =  -5.83725837087652E+01  1.34171908853580E+00
(PID.TID 0000.0001)  ploadbar=  1.01110386079554E+05
 cg2d: Sum(rhs),rhsMax =  -5.88073640759672E+01  1.33140271622820E+00
(PID.TID 0000.0001)  ploadbar=  1.01110465577970E+05
 cg2d: Sum(rhs),rhsMax =  -5.92166283055513E+01  1.32187028420607E+00
(PID.TID 0000.0001)  ploadbar=  1.01110545076385E+05
 cg2d: Sum(rhs),rhsMax =  -5.96697352801890E+01  1.31156591642112E+00
(PID.TID 0000.0001)  ploadbar=  1.01110624574801E+05
 cg2d: Sum(rhs),rhsMax =  -5.89401200123477E+01  1.32759175089388E+00
(PID.TID 0000.0001)  ploadbar=  1.01110704073217E+05
 cg2d: Sum(rhs),rhsMax =  -5.68662225220589E+01  1.37584711291858E+00
(PID.TID 0000.0001)  ploadbar=  1.01110783571632E+05
 cg2d: Sum(rhs),rhsMax =  -5.49324457939254E+01  1.42416038373495E+00
(PID.TID 0000.0001)  ploadbar=  1.01110863070048E+05
 cg2d: Sum(rhs),rhsMax =  -5.33076708857363E+01  1.46740128374564E+00
(PID.TID 0000.0001)  ploadbar=  1.01111010929829E+05
 cg2d: Sum(rhs),rhsMax =  -5.20099779733018E+01  1.50379248523405E+00
(PID.TID 0000.0001)  ploadbar=  1.01111158789610E+05
 cg2d: Sum(rhs),rhsMax =  -5.10531635901159E+01  1.53168907890898E+00
(PID.TID 0000.0001)  ploadbar=  1.01111306649391E+05
 cg2d: Sum(rhs),rhsMax =  -5.04608156818896E+01  1.54931739808756E+00
(PID.TID 0000.0001)  ploadbar=  1.01111454509172E+05
 cg2d: Sum(rhs),rhsMax =  -5.02597724820733E+01  1.55509344866241E+00
(PID.TID 0000.0001)  ploadbar=  1.01111602368953E+05
 cg2d: Sum(rhs),rhsMax =  -5.04713035431501E+01  1.54808188114314E+00
(PID.TID 0000.0001)  ploadbar=  1.01111750228734E+05
 cg2d: Sum(rhs),rhsMax =  -5.10324956162640E+01  1.53058966749494E+00
(PID.TID 0000.0001)  ploadbar=  1.01113944626249E+05
 cg2d: Sum(rhs),rhsMax =  -5.18361636689278E+01  1.50641431102252E+00
(PID.TID 0000.0001)  ploadbar=  1.01116139023763E+05
 cg2d: Sum(rhs),rhsMax =  -5.27962122764284E+01  1.47859558141400E+00
(PID.TID 0000.0001)  ploadbar=  1.01118333421277E+05
 cg2d: Sum(rhs),rhsMax =  -5.38643494427585E+01  1.44886380717389E+00
(PID.TID 0000.0001)  ploadbar=  1.01120527818792E+05
 cg2d: Sum(rhs),rhsMax =  -5.50102241005355E+01  1.41828094356520E+00
(PID.TID 0000.0001)  ploadbar=  1.01122722216306E+05
 cg2d: Sum(rhs),rhsMax =  -5.62290154159579E+01  1.38713756935930E+00
(PID.TID 0000.0001)  ploadbar=  1.01124916613820E+05
 cg2d: Sum(rhs),rhsMax =  -5.74929015628159E+01  1.35624252722602E+00
(PID.TID 0000.0001)  ploadbar=  1.01125517273692E+05
 cg2d: Sum(rhs),rhsMax =  -5.88220984306170E+01  1.32519242492911E+00
(PID.TID 0000.0001)  ploadbar=  1.01126117933564E+05
 cg2d: Sum(rhs),rhsMax =  -6.02307251408791E+01  1.29379172060761E+00
(PID.TID 0000.0001)  ploadbar=  1.01126718593436E+05
 cg2d: Sum(rhs),rhsMax =  -6.16181907076897E+01  1.26424469067661E+00
(PID.TID 0000.0001)  ploadbar=  1.01127319253308E+05
 cg2d: Sum(rhs),rhsMax =  -6.29274279987042E+01  1.23751875533408E+00
(PID.TID 0000.0001)  ploadbar=  1.01127919913180E+05
 cg2d: Sum(rhs),rhsMax =  -6.42425273453321E+01  1.21175281975589E+00
(PID.TID 0000.0001)  ploadbar=  1.01128520573052E+05
 cg2d: Sum(rhs),rhsMax =  -6.55852159181085E+01  1.18657455787071E+00
(PID.TID 0000.0001)  ploadbar=  1.01127907207810E+05
 cg2d: Sum(rhs),rhsMax =  -6.69384941380427E+01  1.16227201817014E+00
(PID.TID 0000.0001)  ploadbar=  1.01127293842568E+05
 cg2d: Sum(rhs),rhsMax =  -6.79508074467219E+01  1.14469178546158E+00
(PID.TID 0000.0001)  ploadbar=  1.01126680477326E+05
 cg2d: Sum(rhs),rhsMax =  -6.88520823402162E+01  1.12948310458834E+00
(PID.TID 0000.0001)  ploadbar=  1.01126067112085E+05
 cg2d: Sum(rhs),rhsMax =  -6.98187601393471E+01  1.11365703925497E+00
(PID.TID 0000.0001)  ploadbar=  1.01125453746843E+05
 cg2d: Sum(rhs),rhsMax =  -7.08190015996696E+01  1.09776873469733E+00
(PID.TID 0000.0001)  ploadbar=  1.01124840381601E+05
 cg2d: Sum(rhs),rhsMax =  -7.15261091368083E+01  1.08674479493425E+00
(PID.TID 0000.0001)  ploadbar=  1.01125355523469E+05
 cg2d: Sum(rhs),rhsMax =  -7.14897207143351E+01  1.08710749003089E+00
(PID.TID 0000.0001)  ploadbar=  1.01125870665337E+05
 cg2d: Sum(rhs),rhsMax =  -7.14537045887398E+01  1.08744013685311E+00
(PID.TID 0000.0001)  ploadbar=  1.01126385807205E+05
 cg2d: Sum(rhs),rhsMax =  -7.14198797552589E+01  1.08770962651789E+00
(PID.TID 0000.0001)  ploadbar=  1.01126900949074E+05
 cg2d: Sum(rhs),rhsMax =  -7.13853996823450E+01  1.08795622688094E+00
(PID.TID 0000.0001)  ploadbar=  1.01127416090942E+05
 cg2d: Sum(rhs),rhsMax =  -7.13542421758915E+01  1.08811973375888E+00
(PID.TID 0000.0001)  ploadbar=  1.01127931232810E+05
 cg2d: Sum(rhs),rhsMax =  -7.13083124802473E+01  1.08854883373231E+00
(PID.TID 0000.0001)  ploadbar=  1.01128341997165E+05
 cg2d: Sum(rhs),rhsMax =  -7.12866992581688E+01  1.08864329489661E+00
(PID.TID 0000.0001)  ploadbar=  1.01128752761520E+05
 cg2d: Sum(rhs),rhsMax =  -7.12916627050432E+01  1.08836229564667E+00
(PID.TID 0000.0001)  ploadbar=  1.01129163525874E+05
 cg2d: Sum(rhs),rhsMax =  -7.13275885858643E+01  1.08763475668577E+00
(PID.TID 0000.0001)  ploadbar=  1.01129574290229E+05
 cg2d: Sum(rhs),rhsMax =  -7.13988957848706E+01  1.08639052698658E+00
(PID.TID 0000.0001)  ploadbar=  1.01129985054584E+05
 cg2d: Sum(rhs),rhsMax =  -7.15067061013092E+01  1.08461140303863E+00
(PID.TID 0000.0001)  ploadbar=  1.01130395818939E+05
 cg2d: Sum(rhs),rhsMax =  -7.16389749113820E+01  1.08245194781102E+00
(PID.TID 0000.0001)  ploadbar=  1.01130181135977E+05
 cg2d: Sum(rhs),rhsMax =  -7.18020612044466E+01  1.07981838548367E+00
(PID.TID 0000.0001)  ploadbar=  1.01129966453015E+05
 cg2d: Sum(rhs),rhsMax =  -7.19953841090241E+01  1.07672527403017E+00
(PID.TID 0000.0001)  ploadbar=  1.01129751770054E+05
 cg2d: Sum(rhs),rhsMax =  -7.22198074942116E+01  1.07316568989233E+00
(PID.TID 0000.0001)  ploadbar=  1.01129537087092E+05
 cg2d: Sum(rhs),rhsMax =  -7.24735603335948E+01  1.06917354802509E+00
(PID.TID 0000.0001)  ploadbar=  1.01129322404131E+05
 cg2d: Sum(rhs),rhsMax =  -7.27563620388308E+01  1.06476420794388E+00
(PID.TID 0000.0001)  ploadbar=  1.01129107721169E+05
 cg2d: Sum(rhs),rhsMax =  -7.33066667941792E+01  1.05656158453292E+00
(PID.TID 0000.0001)  ploadbar=  1.01130053025957E+05
 cg2d: Sum(rhs),rhsMax =  -7.38784509786910E+01  1.04821444964011E+00
(PID.TID 0000.0001)  ploadbar=  1.01130998330745E+05
 cg2d: Sum(rhs),rhsMax =  -7.44746420706838E+01  1.03969205373944E+00
(PID.TID 0000.0001)  ploadbar=  1.01131943635533E+05
 cg2d: Sum(rhs),rhsMax =  -7.50887446242504E+01  1.03109268524636E+00
(PID.TID 0000.0001)  ploadbar=  1.01132888940320E+05
 cg2d: Sum(rhs),rhsMax =  -7.57184085500427E+01  1.02245179051387E+00
(PID.TID 0000.0001)  ploadbar=  1.01133834245108E+05
 cg2d: Sum(rhs),rhsMax =  -7.63358140841980E+01  1.01413941243627E+00
(PID.TID 0000.0001)  ploadbar=  1.01134779549896E+05
 cg2d: Sum(rhs),rhsMax =  -7.62822815642953E+01  1.01478339579548E+00
(PID.TID 0000.0001)  ploadbar=  1.01134600024823E+05
 cg2d: Sum(rhs),rhsMax =  -7.62265834831070E+01  1.01543180764710E+00
(PID.TID 0000.0001)  ploadbar=  1.01134420499751E+05
 cg2d: Sum(rhs),rhsMax =  -7.61708804269145E+01  1.01605421788674E+00
(PID.TID 0000.0001)  ploadbar=  1.01134240974679E+05
 cg2d: Sum(rhs),rhsMax =  -7.61098948936229E+01  1.01671970349682E+00
(PID.TID 0000.0001)  ploadbar=  1.01134061449607E+05
 cg2d: Sum(rhs),rhsMax =  -7.60448595514031E+01  1.01740895499337E+00
(PID.TID 0000.0001)  ploadbar=  1.01133881924535E+05
 cg2d: Sum(rhs),rhsMax =  -7.59764726720407E+01  1.01810914475133E+00
(PID.TID 0000.0001)  ploadbar=  1.01133702399462E+05
 cg2d: Sum(rhs),rhsMax =  -7.58752215896862E+01  1.01927226648970E+00
(PID.TID 0000.0001)  ploadbar=  1.01133491020908E+05
 cg2d: Sum(rhs),rhsMax =  -7.57766297178671E+01  1.02041994394575E+00
(PID.TID 0000.0001)  ploadbar=  1.01133279642353E+05
 cg2d: Sum(rhs),rhsMax =  -7.56740869879741E+01  1.02163524859096E+00
(PID.TID 0000.0001)  ploadbar=  1.01133068263799E+05
 cg2d: Sum(rhs),rhsMax =  -7.55716096691133E+01  1.02285793278823E+00
(PID.TID 0000.0001)  ploadbar=  1.01132856885244E+05
 cg2d: Sum(rhs),rhsMax =  -7.54717212021521E+01  1.02404914828018E+00
(PID.TID 0000.0001)  ploadbar=  1.01132645506689E+05
 cg2d: Sum(rhs),rhsMax =  -7.53728684285022E+01  1.02522166825046E+00
(PID.TID 0000.0001)  ploadbar=  1.01132434128135E+05
 cg2d: Sum(rhs),rhsMax =  -7.53312232237172E+01  1.02562859014504E+00
(PID.TID 0000.0001)  ploadbar=  1.01131999398357E+05
 cg2d: Sum(rhs),rhsMax =  -7.52849601409375E+01  1.02610874352846E+00
(PID.TID 0000.0001)  ploadbar=  1.01131564668579E+05
 cg2d: Sum(rhs),rhsMax =  -7.52412637520179E+01  1.02656229760473E+00
(PID.TID 0000.0001)  ploadbar=  1.01131129938801E+05
 cg2d: Sum(rhs),rhsMax =  -7.51998435339857E+01  1.02699188070183E+00
(PID.TID 0000.0001)  ploadbar=  1.01130695209023E+05
 cg2d: Sum(rhs),rhsMax =  -7.51183747748046E+01  1.02797486822043E+00
(PID.TID 0000.0001)  ploadbar=  1.01130260479245E+05
 cg2d: Sum(rhs),rhsMax =  -7.51033894863967E+01  1.02805633149869E+00
(PID.TID 0000.0001)  ploadbar=  1.01129825749467E+05
 cg2d: Sum(rhs),rhsMax =  -7.50509463432682E+01  1.02870380212745E+00
(PID.TID 0000.0001)  ploadbar=  1.01129134438497E+05
 cg2d: Sum(rhs),rhsMax =  -7.50215328580513E+01  1.02908266984594E+00
(PID.TID 0000.0001)  ploadbar=  1.01128443127526E+05
 cg2d: Sum(rhs),rhsMax =  -7.50158984568210E+01  1.02917902035157E+00
(PID.TID 0000.0001)  ploadbar=  1.01127751816556E+05
 cg2d: Sum(rhs),rhsMax =  -7.50302485641582E+01  1.02904113124186E+00
(PID.TID 0000.0001)  ploadbar=  1.01127060505585E+05
 cg2d: Sum(rhs),rhsMax =  -7.50681549607196E+01  1.02861794528944E+00
(PID.TID 0000.0001)  ploadbar=  1.01126369194615E+05
 cg2d: Sum(rhs),rhsMax =  -7.51260682184607E+01  1.02795178109892E+00
(PID.TID 0000.0001)  ploadbar=  1.01125677883644E+05
 cg2d: Sum(rhs),rhsMax =  -7.51799206901498E+01  1.02729926087601E+00
(PID.TID 0000.0001)  ploadbar=  1.01124821086462E+05
 cg2d: Sum(rhs),rhsMax =  -7.52658460561325E+01  1.02616603883114E+00
(PID.TID 0000.0001)  ploadbar=  1.01123964289280E+05
 cg2d: Sum(rhs),rhsMax =  -7.53667414063711E+01  1.02478583053593E+00
(PID.TID 0000.0001)  ploadbar=  1.01123107492098E+05
 cg2d: Sum(rhs),rhsMax =  -7.54696155232284E+01  1.02333400669894E+00
(PID.TID 0000.0001)  ploadbar=  1.01122250694915E+05
 cg2d: Sum(rhs),rhsMax =  -7.55605750600300E+01  1.02199551262111E+00
(PID.TID 0000.0001)  ploadbar=  1.01121393897733E+05
 cg2d: Sum(rhs),rhsMax =  -7.56257992672606E+01  1.02095336789566E+00
(PID.TID 0000.0001)  ploadbar=  1.01120537100551E+05
 cg2d: Sum(rhs),rhsMax =  -7.56333832636175E+01  1.02069355697240E+00
(PID.TID 0000.0001)  ploadbar=  1.01118958240237E+05
 cg2d: Sum(rhs),rhsMax =  -7.55542455850224E+01  1.02160405023848E+00
(PID.TID 0000.0001)  ploadbar=  1.01117379379923E+05
 cg2d: Sum(rhs),rhsMax =  -7.53813002802441E+01  1.02378433588924E+00
(PID.TID 0000.0001)  ploadbar=  1.01115800519610E+05
 cg2d: Sum(rhs),rhsMax =  -7.51641305139509E+01  1.02656999127575E+00
(PID.TID 0000.0001)  ploadbar=  1.01114221659296E+05
 cg2d: Sum(rhs),rhsMax =  -7.49303379775080E+01  1.02958943155044E+00
(PID.TID 0000.0001)  ploadbar=  1.01112642798982E+05
 cg2d: Sum(rhs),rhsMax =  -7.47041588032168E+01  1.03251065067902E+00
(PID.TID 0000.0001)  ploadbar=  1.01111063938668E+05
 cg2d: Sum(rhs),rhsMax =  -7.47452828272793E+01  1.03172328302393E+00
(PID.TID 0000.0001)  ploadbar=  1.01110649286739E+05
 cg2d: Sum(rhs),rhsMax =  -7.48003514307766E+01  1.03072167029016E+00
(PID.TID 0000.0001)  ploadbar=  1.01110234634809E+05
 cg2d: Sum(rhs),rhsMax =  -7.48699405085839E+01  1.02949667263835E+00
(PID.TID 0000.0001)  ploadbar=  1.01109819982880E+05
 cg2d: Sum(rhs),rhsMax =  -7.49614345666266E+01  1.02794737641772E+00
(PID.TID 0000.0001)  ploadbar=  1.01109405330951E+05
 cg2d: Sum(rhs),rhsMax =  -7.50651929942807E+01  1.02620672322940E+00
(PID.TID 0000.0001)  ploadbar=  1.01108990679021E+05
 cg2d: Sum(rhs),rhsMax =  -7.51910620714262E+01  1.02414577762307E+00
(PID.TID 0000.0001)  ploadbar=  1.01108576027092E+05
 cg2d: Sum(rhs),rhsMax =  -7.41493713380499E+01  1.03821221518163E+00
(PID.TID 0000.0001)  ploadbar=  1.01108514453760E+05
 cg2d: Sum(rhs),rhsMax =  -7.21947332848510E+01  1.06601224075283E+00
(PID.TID 0000.0001)  ploadbar=  1.01108452880428E+05
 cg2d: Sum(rhs),rhsMax =  -7.01932454879704E+01  1.09610978928929E+00
(PID.TID 0000.0001)  ploadbar=  1.01108391307096E+05
 cg2d: Sum(rhs),rhsMax =  -6.81443820924932E+01  1.12877701465265E+00
(PID.TID 0000.0001)  ploadbar=  1.01108329733764E+05
 cg2d: Sum(rhs),rhsMax =  -6.61003491412229E+01  1.16340226758363E+00
(PID.TID 0000.0001)  ploadbar=  1.01108268160432E+05
 cg2d: Sum(rhs),rhsMax =  -6.40663885850800E+01  1.20006083575045E+00
(PID.TID 0000.0001)  ploadbar=  1.01108206587101E+05
 cg2d: Sum(rhs),rhsMax =  -6.22363737998852E+01  1.23505831401374E+00
(PID.TID 0000.0001)  ploadbar=  1.01107772021316E+05
 cg2d: Sum(rhs),rhsMax =  -6.06445420755907E+01  1.26717079724708E+00
(PID.TID 0000.0001)  ploadbar=  1.01107337455531E+05
 cg2d: Sum(rhs),rhsMax =  -5.93151057816724E+01  1.29524731620491E+00
(PID.TID 0000.0001)  ploadbar=  1.01106902889746E+05
 cg2d: Sum(rhs),rhsMax =  -5.82787513826047E+01  1.31793382560496E+00
(PID.TID 0000.0001)  ploadbar=  1.01106468323961E+05
 cg2d: Sum(rhs),rhsMax =  -5.75404867067664E+01  1.33447391802103E+00
(PID.TID 0000.0001)  ploadbar=  1.01106033758176E+05
 cg2d: Sum(rhs),rhsMax =  -5.73396877424831E+01  1.33875359142213E+00
(PID.TID 0000.0001)  ploadbar=  1.01105599192391E+05
 cg2d: Sum(rhs),rhsMax =  -5.76849158315522E+01  1.33037638152140E+00
(PID.TID 0000.0001)  ploadbar=  1.01105855250403E+05
 cg2d: Sum(rhs),rhsMax =  -5.80774228815879E+01  1.32104533238703E+00
(PID.TID 0000.0001)  ploadbar=  1.01106111308415E+05
 cg2d: Sum(rhs),rhsMax =  -5.85142010483411E+01  1.31086447377448E+00
(PID.TID 0000.0001)  ploadbar=  1.01106367366426E+05
 cg2d: Sum(rhs),rhsMax =  -5.90218626930566E+01  1.29928363548404E+00
(PID.TID 0000.0001)  ploadbar=  1.01106623424438E+05
 cg2d: Sum(rhs),rhsMax =  -5.96118853024739E+01  1.28612651200013E+00
(PID.TID 0000.0001)  ploadbar=  1.01106879482449E+05
 cg2d: Sum(rhs),rhsMax =  -6.02943348162498E+01  1.27127677525171E+00
(PID.TID 0000.0001)  ploadbar=  1.01107135540461E+05
 cg2d: Sum(rhs),rhsMax =  -6.10931893950825E+01  1.25435399583568E+00
(PID.TID 0000.0001)  ploadbar=  1.01107351185738E+05
 cg2d: Sum(rhs),rhsMax =  -6.19866298425549E+01  1.23596703264157E+00
(PID.TID 0000.0001)  ploadbar=  1.01107566831015E+05
 cg2d: Sum(rhs),rhsMax =  -6.29707627277134E+01  1.21633382219448E+00
(PID.TID 0000.0001)  ploadbar=  1.01107782476292E+05
 cg2d: Sum(rhs),rhsMax =  -6.40387896619797E+01  1.19572083534457E+00
(PID.TID 0000.0001)  ploadbar=  1.01107998121569E+05
 cg2d: Sum(rhs),rhsMax =  -6.51785765684281E+01  1.17447344892226E+00
(PID.TID 0000.0001)  ploadbar=  1.01108213766846E+05
 cg2d: Sum(rhs),rhsMax =  -6.63698063070977E+01  1.15304438961143E+00
(PID.TID 0000.0001)  ploadbar=  1.01108429412123E+05
 cg2d: Sum(rhs),rhsMax =  -6.77130107382167E+01  1.12987088667025E+00
(PID.TID 0000.0001)  ploadbar=  1.01109037645365E+05
 cg2d: Sum(rhs),rhsMax =  -6.91138006513605E+01  1.10671209214007E+00
(PID.TID 0000.0001)  ploadbar=  1.01109645878607E+05
 cg2d: Sum(rhs),rhsMax =  -6.88276075871472E+01  1.11108836929396E+00
(PID.TID 0000.0001)  ploadbar=  1.01110254111849E+05
 cg2d: Sum(rhs),rhsMax =  -6.83465709458016E+01  1.11871413592574E+00
(PID.TID 0000.0001)  ploadbar=  1.01110862345091E+05
 cg2d: Sum(rhs),rhsMax =  -6.79120493732401E+01  1.12570766799036E+00
(PID.TID 0000.0001)  ploadbar=  1.01111470578333E+05
 cg2d: Sum(rhs),rhsMax =  -6.75275831033530E+01  1.13197750859485E+00
(PID.TID 0000.0001)  ploadbar=  1.01112078811575E+05
 cg2d: Sum(rhs),rhsMax =  -6.72175862213915E+01  1.13704461110827E+00
(PID.TID 0000.0001)  ploadbar=  1.01113022071624E+05
 cg2d: Sum(rhs),rhsMax =  -6.69462283735699E+01  1.14148131826159E+00
(PID.TID 0000.0001)  ploadbar=  1.01113965331674E+05
 cg2d: Sum(rhs),rhsMax =  -6.66941975241375E+01  1.14560076789665E+00
(PID.TID 0000.0001)  ploadbar=  1.01114908591723E+05
 cg2d: Sum(rhs),rhsMax =  -6.64647903446998E+01  1.14933559705556E+00
(PID.TID 0000.0001)  ploadbar=  1.01115851851773E+05
 cg2d: Sum(rhs),rhsMax =  -6.62525199007920E+01  1.15277085775069E+00
(PID.TID 0000.0001)  ploadbar=  1.01116795111822E+05
 cg2d: Sum(rhs),rhsMax =  -6.60540906045313E+01  1.15595585974249E+00
(PID.TID 0000.0001)  ploadbar=  1.01117738371871E+05
 cg2d: Sum(rhs),rhsMax =  -6.59191717844987E+01  1.15803967149331E+00
(PID.TID 0000.0001)  ploadbar=  1.01120157273323E+05
 cg2d: Sum(rhs),rhsMax =  -6.57913223472039E+01  1.16000244515676E+00
(PID.TID 0000.0001)  ploadbar=  1.01122576174774E+05
 cg2d: Sum(rhs),rhsMax =  -6.56654228990260E+01  1.16192938643103E+00
(PID.TID 0000.0001)  ploadbar=  1.01124995076226E+05
 cg2d: Sum(rhs),rhsMax =  -6.55416385327610E+01  1.16381353494763E+00
(PID.TID 0000.0001)  ploadbar=  1.01127413977677E+05
 cg2d: Sum(rhs),rhsMax =  -6.54180358444255E+01  1.16568526911136E+00
(PID.TID 0000.0001)  ploadbar=  1.01129832879129E+05
 cg2d: Sum(rhs),rhsMax =  -6.52954113056108E+01  1.16752532853025E+00
(PID.TID 0000.0001)  ploadbar=  1.01132251780581E+05
 cg2d: Sum(rhs),rhsMax =  -6.50932060102437E+01  1.17079508939935E+00
(PID.TID 0000.0001)  ploadbar=  1.01132622184965E+05
 cg2d: Sum(rhs),rhsMax =  -6.47864476234235E+01  1.17597178707519E+00
(PID.TID 0000.0001)  ploadbar=  1.01132992589349E+05
 cg2d: Sum(rhs),rhsMax =  -6.44442262145152E+01  1.18183689207044E+00
(PID.TID 0000.0001)  ploadbar=  1.01133362993732E+05
 cg2d: Sum(rhs),rhsMax =  -6.41274095615466E+01  1.18728175398893E+00
(PID.TID 0000.0001)  ploadbar=  1.01133733398116E+05
 cg2d: Sum(rhs),rhsMax =  -6.38349958439964E+01  1.19231111260846E+00
(PID.TID 0000.0001)  ploadbar=  1.01134103802500E+05
 cg2d: Sum(rhs),rhsMax =  -6.35681279887214E+01  1.19689214187663E+00
(PID.TID 0000.0001)  ploadbar=  1.01134474206884E+05
 cg2d: Sum(rhs),rhsMax =  -6.33297993168092E+01  1.20101900227594E+00
(PID.TID 0000.0001)  ploadbar=  1.01134225448527E+05
 cg2d: Sum(rhs),rhsMax =  -6.31371344463277E+01  1.20434853575802E+00
(PID.TID 0000.0001)  ploadbar=  1.01133976690171E+05
 cg2d: Sum(rhs),rhsMax =  -6.29876985955238E+01  1.20691144248973E+00
(PID.TID 0000.0001)  ploadbar=  1.01133727931814E+05
 cg2d: Sum(rhs),rhsMax =  -6.28748665467586E+01  1.20882257717269E+00
(PID.TID 0000.0001)  ploadbar=  1.01133479173457E+05
 cg2d: Sum(rhs),rhsMax =  -6.27940233339718E+01  1.21015997886982E+00
(PID.TID 0000.0001)  ploadbar=  1.01133230415100E+05
 cg2d: Sum(rhs),rhsMax =  -6.27414862553855E+01  1.21098178040976E+00
(PID.TID 0000.0001)  ploadbar=  1.01132981656743E+05
 cg2d: Sum(rhs),rhsMax =  -6.27190628544812E+01  1.21123706124441E+00
(PID.TID 0000.0001)  ploadbar=  1.01133213362912E+05
 cg2d: Sum(rhs),rhsMax =  -6.26937452316764E+01  1.21155667489765E+00
(PID.TID 0000.0001)  ploadbar=  1.01133445069081E+05
 cg2d: Sum(rhs),rhsMax =  -6.26648849553327E+01  1.21194725950792E+00
(PID.TID 0000.0001)  ploadbar=  1.01133676775250E+05
 cg2d: Sum(rhs),rhsMax =  -6.26328108161861E+01  1.21240127087240E+00
(PID.TID 0000.0001)  ploadbar=  1.01133908481419E+05
 cg2d: Sum(rhs),rhsMax =  -6.25952190644948E+01  1.21296022002765E+00
(PID.TID 0000.0001)  ploadbar=  1.01134140187588E+05
 cg2d: Sum(rhs),rhsMax =  -6.25523836090903E+01  1.21361473361671E+00
(PID.TID 0000.0001)  ploadbar=  1.01134371893757E+05
 cg2d: Sum(rhs),rhsMax =  -6.25234629877539E+01  1.21401755442112E+00
(PID.TID 0000.0001)  ploadbar=  1.01134096444281E+05
 cg2d: Sum(rhs),rhsMax =  -6.24752177544415E+01  1.21480643047226E+00
(PID.TID 0000.0001)  ploadbar=  1.01133820994804E+05
 cg2d: Sum(rhs),rhsMax =  -6.24079061513300E+01  1.21597196587057E+00
(PID.TID 0000.0001)  ploadbar=  1.01133545545328E+05
 cg2d: Sum(rhs),rhsMax =  -6.23208824058609E+01  1.21752362909222E+00
(PID.TID 0000.0001)  ploadbar=  1.01133270095852E+05
 cg2d: Sum(rhs),rhsMax =  -6.22247478753699E+01  1.21925128465432E+00
(PID.TID 0000.0001)  ploadbar=  1.01132994646375E+05
 cg2d: Sum(rhs),rhsMax =  -6.21186403917398E+01  1.22116770101433E+00
(PID.TID 0000.0001)  ploadbar=  1.01132719196899E+05
 cg2d: Sum(rhs),rhsMax =  -6.20126353295380E+01  1.22307387021040E+00
(PID.TID 0000.0001)  ploadbar=  1.01132289180700E+05
 cg2d: Sum(rhs),rhsMax =  -6.18878936530623E+01  1.22533906914862E+00
(PID.TID 0000.0001)  ploadbar=  1.01131859164502E+05
 cg2d: Sum(rhs),rhsMax =  -6.17482234121019E+01  1.22788636497527E+00
(PID.TID 0000.0001)  ploadbar=  1.01131429148303E+05
 cg2d: Sum(rhs),rhsMax =  -6.15994671917097E+01  1.23059822854350E+00
(PID.TID 0000.0001)  ploadbar=  1.01130999132104E+05
 cg2d: Sum(rhs),rhsMax =  -6.14462121422741E+01  1.23338282800742E+00
(PID.TID 0000.0001)  ploadbar=  1.01130569115906E+05
 cg2d: Sum(rhs),rhsMax =  -6.12917448146259E+01  1.23617530628574E+00
(PID.TID 0000.0001)  ploadbar=  1.01130139099707E+05
 cg2d: Sum(rhs),rhsMax =  -6.03171048556857E+01  1.25586361199285E+00
(PID.TID 0000.0001)  ploadbar=  1.01130483979560E+05
 cg2d: Sum(rhs),rhsMax =  -5.93156800177356E+01  1.27680564007566E+00
(PID.TID 0000.0001)  ploadbar=  1.01130828859414E+05
 cg2d: Sum(rhs),rhsMax =  -5.84329083505814E+01  1.29586007365318E+00
(PID.TID 0000.0001)  ploadbar=  1.01131173739267E+05
 cg2d: Sum(rhs),rhsMax =  -5.76569932829679E+01  1.31308532519935E+00
(PID.TID 0000.0001)  ploadbar=  1.01131518619120E+05
 cg2d: Sum(rhs),rhsMax =  -5.69639227802554E+01  1.32886390604964E+00
(PID.TID 0000.0001)  ploadbar=  1.01131863498974E+05
 cg2d: Sum(rhs),rhsMax =  -5.63430919910349E+01  1.34331478635485E+00
(PID.TID 0000.0001)  ploadbar=  1.01132208378827E+05
 cg2d: Sum(rhs),rhsMax =  -5.58300109429328E+01  1.35544232378432E+00
(PID.TID 0000.0001)  ploadbar=  1.01132153548016E+05
 cg2d: Sum(rhs),rhsMax =  -5.53841140917596E+01  1.36610287248096E+00
(PID.TID 0000.0001)  ploadbar=  1.01132098717205E+05
 cg2d: Sum(rhs),rhsMax =  -5.50046254561959E+01  1.37524076040126E+00
(PID.TID 0000.0001)  ploadbar=  1.01132043886394E+05
 cg2d: Sum(rhs),rhsMax =  -5.46882566717960E+01  1.38287300916410E+00
(PID.TID 0000.0001)  ploadbar=  1.01131989055583E+05
 cg2d: Sum(rhs),rhsMax =  -5.44341348034350E+01  1.38896421480663E+00
(PID.TID 0000.0001)  ploadbar=  1.01131934224772E+05
 cg2d: Sum(rhs),rhsMax =  -5.42415210663154E+01  1.39348533956966E+00
(PID.TID 0000.0001)  ploadbar=  1.01131879393961E+05
 cg2d: Sum(rhs),rhsMax =  -5.40943955145653E+01  1.39688293949927E+00
(PID.TID 0000.0001)  ploadbar=  1.01131611986170E+05
 cg2d: Sum(rhs),rhsMax =  -5.39497549184516E+01  1.40024863592525E+00
(PID.TID 0000.0001)  ploadbar=  1.01131344578379E+05
 cg2d: Sum(rhs),rhsMax =  -5.38026530764058E+01  1.40370484654395E+00
(PID.TID 0000.0001)  ploadbar=  1.01131077170589E+05
 cg2d: Sum(rhs),rhsMax =  -5.37124782116000E+01  1.40569468445133E+00
(PID.TID 0000.0001)  ploadbar=  1.01130809762798E+05
 cg2d: Sum(rhs),rhsMax =  -5.37613565366140E+01  1.40404942450319E+00
(PID.TID 0000.0001)  ploadbar=  1.01130542355008E+05
 cg2d: Sum(rhs),rhsMax =  -5.39669508983202E+01  1.39833011086671E+00
(PID.TID 0000.0001)  ploadbar=  1.01130274947217E+05
 cg2d: Sum(rhs),rhsMax =  -5.44509188474070E+01  1.38550399351520E+00
(PID.TID 0000.0001)  ploadbar=  1.01130437282464E+05
 cg2d: Sum(rhs),rhsMax =  -5.52424477177170E+01  1.36522767678727E+00
(PID.TID 0000.0001)  ploadbar=  1.01130599617711E+05
 cg2d: Sum(rhs),rhsMax =  -5.64833940616148E+01  1.33478392037805E+00
(PID.TID 0000.0001)  ploadbar=  1.01130761952957E+05
 cg2d: Sum(rhs),rhsMax =  -5.73586151906696E+01  1.31393873739712E+00
(PID.TID 0000.0001)  ploadbar=  1.01130924288204E+05
 cg2d: Sum(rhs),rhsMax =  -5.72266708363560E+01  1.31645566945763E+00
(PID.TID 0000.0001)  ploadbar=  1.01131086623451E+05
 cg2d: Sum(rhs),rhsMax =  -5.71101193394948E+01  1.31859696890179E+00
(PID.TID 0000.0001)  ploadbar=  1.01131248958698E+05
 cg2d: Sum(rhs),rhsMax =  -5.70199782441136E+01  1.32019236383444E+00
(PID.TID 0000.0001)  ploadbar=  1.01131674386836E+05
 cg2d: Sum(rhs),rhsMax =  -5.69491153563598E+01  1.32139653020574E+00
(PID.TID 0000.0001)  ploadbar=  1.01132099814974E+05
 cg2d: Sum(rhs),rhsMax =  -5.68949837745233E+01  1.32226474221614E+00
(PID.TID 0000.0001)  ploadbar=  1.01132525243112E+05
 cg2d: Sum(rhs),rhsMax =  -5.68564805564550E+01  1.32281836638140E+00
(PID.TID 0000.0001)  ploadbar=  1.01132950671250E+05
 cg2d: Sum(rhs),rhsMax =  -5.68377829961666E+01  1.32295026198381E+00
(PID.TID 0000.0001)  ploadbar=  1.01133376099388E+05
 cg2d: Sum(rhs),rhsMax =  -5.68442518444970E+01  1.32252439665361E+00
(PID.TID 0000.0001)  ploadbar=  1.01133801527526E+05
 cg2d: Sum(rhs),rhsMax =  -5.68845757402317E+01  1.32127512427509E+00
(PID.TID 0000.0001)  ploadbar=  1.01134598120213E+05
 cg2d: Sum(rhs),rhsMax =  -5.69718334300606E+01  1.31890247755595E+00
(PID.TID 0000.0001)  ploadbar=  1.01135394712901E+05
 cg2d: Sum(rhs),rhsMax =  -5.71241332286104E+01  1.31499687855044E+00
(PID.TID 0000.0001)  ploadbar=  1.01136191305588E+05
 cg2d: Sum(rhs),rhsMax =  -5.73445308055813E+01  1.30951044130789E+00
(PID.TID 0000.0001)  ploadbar=  1.01136987898275E+05
 cg2d: Sum(rhs),rhsMax =  -5.76312425813828E+01  1.30251817237072E+00
(PID.TID 0000.0001)  ploadbar=  1.01137784490963E+05
 cg2d: Sum(rhs),rhsMax =  -5.79858557331494E+01  1.29402841018095E+00
(PID.TID 0000.0001)  ploadbar=  1.01138581083650E+05
 cg2d: Sum(rhs),rhsMax =  -5.83870607370450E+01  1.28464640777772E+00
(PID.TID 0000.0001)  ploadbar=  1.01139574892079E+05
 cg2d: Sum(rhs),rhsMax =  -5.87886237519446E+01  1.27540651797677E+00
(PID.TID 0000.0001)  ploadbar=  1.01140568700509E+05
 cg2d: Sum(rhs),rhsMax =  -5.91737672637475E+01  1.26665990586374E+00
(PID.TID 0000.0001)  ploadbar=  1.01141562508938E+05
 cg2d: Sum(rhs),rhsMax =  -5.95466924498926E+01  1.25829507403766E+00
(PID.TID 0000.0001)  ploadbar=  1.01142556317367E+05
 cg2d: Sum(rhs),rhsMax =  -5.98897639829678E+01  1.25066566007662E+00
(PID.TID 0000.0001)  ploadbar=  1.01143550125797E+05
 cg2d: Sum(rhs),rhsMax =  -6.01904217640729E+01  1.24400201663658E+00
(PID.TID 0000.0001)  ploadbar=  1.01144543934226E+05
 cg2d: Sum(rhs),rhsMax =  -6.04736539931273E+01  1.23774319913069E+00
(PID.TID 0000.0001)  ploadbar=  1.01145839302230E+05
 cg2d: Sum(rhs),rhsMax =  -6.07115850885222E+01  1.23243821677443E+00
(PID.TID 0000.0001)  ploadbar=  1.01147134670234E+05
 cg2d: Sum(rhs),rhsMax =  -6.09030054239451E+01  1.22808410014860E+00
(PID.TID 0000.0001)  ploadbar=  1.01148430038238E+05
 cg2d: Sum(rhs),rhsMax =  -6.10710857503377E+01  1.22419409415335E+00
(PID.TID 0000.0001)  ploadbar=  1.01149725406242E+05
 cg2d: Sum(rhs),rhsMax =  -6.12232999571690E+01  1.22060770923535E+00
(PID.TID 0000.0001)  ploadbar=  1.01151020774246E+05
 cg2d: Sum(rhs),rhsMax =  -6.13569583291851E+01  1.21737061564316E+00
(PID.TID 0000.0001)  ploadbar=  1.01152316142251E+05
 cg2d: Sum(rhs),rhsMax =  -6.14609325881100E+01  1.21478623839176E+00
(PID.TID 0000.0001)  ploadbar=  1.01152514014368E+05
 cg2d: Sum(rhs),rhsMax =  -6.15657341413479E+01  1.21224205745524E+00
(PID.TID 0000.0001)  ploadbar=  1.01152711886486E+05
 cg2d: Sum(rhs),rhsMax =  -6.16857128810817E+01  1.20945246787579E+00
(PID.TID 0000.0001)  ploadbar=  1.01152909758604E+05
 cg2d: Sum(rhs),rhsMax =  -6.18184603899095E+01  1.20646576532675E+00
(PID.TID 0000.0001)  ploadbar=  1.01153107630722E+05
 cg2d: Sum(rhs),rhsMax =  -6.19694445323744E+01  1.20317458723912E+00
(PID.TID 0000.0001)  ploadbar=  1.01153305502840E+05
 cg2d: Sum(rhs),rhsMax =  -6.21463980714301E+01  1.19942480770182E+00
(PID.TID 0000.0001)  ploadbar=  1.01153503374958E+05
 cg2d: Sum(rhs),rhsMax =  -6.20457926533466E+01  1.20103399590933E+00
(PID.TID 0000.0001)  ploadbar=  1.01154010039222E+05
 cg2d: Sum(rhs),rhsMax =  -6.17698671525969E+01  1.20604522539749E+00
(PID.TID 0000.0001)  ploadbar=  1.01154516703487E+05
 cg2d: Sum(rhs),rhsMax =  -6.14593479806102E+01  1.21175992138440E+00
(PID.TID 0000.0001)  ploadbar=  1.01155023367752E+05
 cg2d: Sum(rhs),rhsMax =  -6.11116652620268E+01  1.21823987751979E+00
(PID.TID 0000.0001)  ploadbar=  1.01155530032017E+05
 cg2d: Sum(rhs),rhsMax =  -6.07213578531512E+01  1.22561733914812E+00
(PID.TID 0000.0001)  ploadbar=  1.01156036696282E+05
 cg2d: Sum(rhs),rhsMax =  -6.02874338642828E+01  1.23394214429290E+00
(PID.TID 0000.0001)  ploadbar=  1.01156543360547E+05
 cg2d: Sum(rhs),rhsMax =  -5.97945175305477E+01  1.24365985264667E+00
(PID.TID 0000.0001)  ploadbar=  1.01156576781181E+05
 cg2d: Sum(rhs),rhsMax =  -5.92920619920661E+01  1.25377999017508E+00
(PID.TID 0000.0001)  ploadbar=  1.01156610201816E+05
 cg2d: Sum(rhs),rhsMax =  -5.87833480704283E+01  1.26424058778555E+00
(PID.TID 0000.0001)  ploadbar=  1.01156643622450E+05
 cg2d: Sum(rhs),rhsMax =  -5.82886968223284E+01  1.27460306011333E+00
(PID.TID 0000.0001)  ploadbar=  1.01156677043084E+05
 cg2d: Sum(rhs),rhsMax =  -5.78272358832571E+01  1.28442778605336E+00
(PID.TID 0000.0001)  ploadbar=  1.01156710463719E+05
 cg2d: Sum(rhs),rhsMax =  -5.74077534426254E+01  1.29348040683760E+00
(PID.TID 0000.0001)  ploadbar=  1.01156743884353E+05
 cg2d: Sum(rhs),rhsMax =  -5.70218818740813E+01  1.30188059076550E+00
(PID.TID 0000.0001)  ploadbar=  1.01155740934961E+05
 cg2d: Sum(rhs),rhsMax =  -5.67192129505885E+01  1.30845512218131E+00
(PID.TID 0000.0001)  ploadbar=  1.01154737985568E+05
 cg2d: Sum(rhs),rhsMax =  -5.64896618971718E+01  1.31337737649270E+00
(PID.TID 0000.0001)  ploadbar=  1.01153735036176E+05
 cg2d: Sum(rhs),rhsMax =  -5.63571887132575E+01  1.31604474376630E+00
(PID.TID 0000.0001)  ploadbar=  1.01152732086784E+05
 cg2d: Sum(rhs),rhsMax =  -5.63460811339859E+01  1.31585804734894E+00
(PID.TID 0000.0001)  ploadbar=  1.01151729137391E+05
 cg2d: Sum(rhs),rhsMax =  -5.64522633850129E+01  1.31290940841567E+00
(PID.TID 0000.0001)  ploadbar=  1.01150726187999E+05
 cg2d: Sum(rhs),rhsMax =  -5.67442061067759E+01  1.30576465705644E+00
(PID.TID 0000.0001)  ploadbar=  1.01148831066250E+05
 cg2d: Sum(rhs),rhsMax =  -5.70898053056957E+01  1.29754626867406E+00
(PID.TID 0000.0001)  ploadbar=  1.01146935944502E+05
 cg2d: Sum(rhs),rhsMax =  -5.74546742371555E+01  1.28906576541139E+00
(PID.TID 0000.0001)  ploadbar=  1.01145040822754E+05
 cg2d: Sum(rhs),rhsMax =  -5.78205118498683E+01  1.28073836388572E+00
(PID.TID 0000.0001)  ploadbar=  1.01143145701006E+05
 cg2d: Sum(rhs),rhsMax =  -5.81881922363734E+01  1.27253857606751E+00
(PID.TID 0000.0001)  ploadbar=  1.01141250579257E+05
 cg2d: Sum(rhs),rhsMax =  -5.85615642437817E+01  1.26437733115206E+00
(PID.TID 0000.0001)  ploadbar=  1.01139355457509E+05
 cg2d: Sum(rhs),rhsMax =  -5.89870729685050E+01  1.25519286898363E+00
(PID.TID 0000.0001)  ploadbar=  1.01138802128915E+05
 cg2d: Sum(rhs),rhsMax =  -5.93690599183493E+01  1.24703215982082E+00
(PID.TID 0000.0001)  ploadbar=  1.01138248800321E+05
 cg2d: Sum(rhs),rhsMax =  -5.95861278182723E+01  1.24237975553501E+00
(PID.TID 0000.0001)  ploadbar=  1.01137695471726E+05
 cg2d: Sum(rhs),rhsMax =  -5.96171921882350E+01  1.24159171861989E+00
(PID.TID 0000.0001)  ploadbar=  1.01137142143132E+05
 cg2d: Sum(rhs),rhsMax =  -5.96320891586392E+01  1.24110520069649E+00
(PID.TID 0000.0001)  ploadbar=  1.01136588814538E+05
 cg2d: Sum(rhs),rhsMax =  -5.96354023449443E+01  1.24082196360535E+00
(PID.TID 0000.0001)  ploadbar=  1.01136035485944E+05
 cg2d: Sum(rhs),rhsMax =  -5.94999198129889E+01  1.24344836677412E+00
(PID.TID 0000.0001)  ploadbar=  1.01135307360265E+05
 cg2d: Sum(rhs),rhsMax =  -5.93596944527365E+01  1.24619467998785E+00
(PID.TID 0000.0001)  ploadbar=  1.01134579234587E+05
 cg2d: Sum(rhs),rhsMax =  -5.92522291384767E+01  1.24826612880604E+00
(PID.TID 0000.0001)  ploadbar=  1.01133851108908E+05
 cg2d: Sum(rhs),rhsMax =  -5.91809739710745E+01  1.24957737526505E+00
(PID.TID 0000.0001)  ploadbar=  1.01133122983230E+05
 cg2d: Sum(rhs),rhsMax =  -5.91618707870205E+01  1.24978246537088E+00
(PID.TID 0000.0001)  ploadbar=  1.01132394857551E+05
 cg2d: Sum(rhs),rhsMax =  -5.92116923786524E+01  1.24852221401588E+00
(PID.TID 0000.0001)  ploadbar=  1.01131666731873E+05
 cg2d: Sum(rhs),rhsMax =  -5.93840201264929E+01  1.24465392912438E+00
(PID.TID 0000.0001)  ploadbar=  1.01130252615198E+05
 cg2d: Sum(rhs),rhsMax =  -5.96136872713604E+01  1.23957473663372E+00
(PID.TID 0000.0001)  ploadbar=  1.01128838498524E+05
 cg2d: Sum(rhs),rhsMax =  -5.98985550158763E+01  1.23335543607830E+00
(PID.TID 0000.0001)  ploadbar=  1.01127424381849E+05
 cg2d: Sum(rhs),rhsMax =  -6.02304102706907E+01  1.22619520173862E+00
(PID.TID 0000.0001)  ploadbar=  1.01126010265175E+05
 cg2d: Sum(rhs),rhsMax =  -6.03967577846725E+01  1.22240978193722E+00
(PID.TID 0000.0001)  ploadbar=  1.01124596148500E+05
 cg2d: Sum(rhs),rhsMax =  -6.03154109948120E+01  1.22360218593840E+00
(PID.TID 0000.0001)  ploadbar=  1.01123182031826E+05
 cg2d: Sum(rhs),rhsMax =  -6.04221629500318E+01  1.22104733725181E+00
(PID.TID 0000.0001)  ploadbar=  1.01122257447270E+05
 cg2d: Sum(rhs),rhsMax =  -6.05595300111248E+01  1.21794396811966E+00
(PID.TID 0000.0001)  ploadbar=  1.01121332862714E+05
 cg2d: Sum(rhs),rhsMax =  -6.06795650370597E+01  1.21525546501082E+00
(PID.TID 0000.0001)  ploadbar=  1.01120408278158E+05
 cg2d: Sum(rhs),rhsMax =  -6.07941974375556E+01  1.21273266069876E+00
(PID.TID 0000.0001)  ploadbar=  1.01119483693602E+05
 cg2d: Sum(rhs),rhsMax =  -6.08897797953431E+01  1.21063954728365E+00
(PID.TID 0000.0001)  ploadbar=  1.01118559109046E+05
 cg2d: Sum(rhs),rhsMax =  -6.09621735332168E+01  1.20904945335049E+00
(PID.TID 0000.0001)  ploadbar=  1.01117634524490E+05
 cg2d: Sum(rhs),rhsMax =  -6.10767416538042E+01  1.20663896491120E+00
(PID.TID 0000.0001)  ploadbar=  1.01116803585578E+05
 cg2d: Sum(rhs),rhsMax =  -6.11712740051536E+01  1.20463979225009E+00
(PID.TID 0000.0001)  ploadbar=  1.01115972646665E+05
 cg2d: Sum(rhs),rhsMax =  -6.12291712213051E+01  1.20337024178316E+00
(PID.TID 0000.0001)  ploadbar=  1.01115141707753E+05
 cg2d: Sum(rhs),rhsMax =  -6.06882252819116E+01  1.21396331048366E+00
(PID.TID 0000.0001)  ploadbar=  1.01114310768841E+05
 cg2d: Sum(rhs),rhsMax =  -5.82622620981964E+01  1.26436351410987E+00
(PID.TID 0000.0001)  ploadbar=  1.01113479829928E+05
 cg2d: Sum(rhs),rhsMax =  -5.60742018346905E+01  1.31353332581337E+00
(PID.TID 0000.0001)  ploadbar=  1.01112648891016E+05
 cg2d: Sum(rhs),rhsMax =  -5.39874323180917E+01  1.36415844611748E+00
(PID.TID 0000.0001)  ploadbar=  1.01112847438430E+05
 cg2d: Sum(rhs),rhsMax =  -5.20067705148828E+01  1.41597573385694E+00
(PID.TID 0000.0001)  ploadbar=  1.01113045985845E+05
 cg2d: Sum(rhs),rhsMax =  -5.02346563618441E+01  1.46579535088219E+00
(PID.TID 0000.0001)  ploadbar=  1.01113244533259E+05
 cg2d: Sum(rhs),rhsMax =  -4.87341378113732E+01  1.51079006740324E+00
(PID.TID 0000.0001)  ploadbar=  1.01113443080674E+05
 cg2d: Sum(rhs),rhsMax =  -4.72659389324661E+01  1.55756563116283E+00
(PID.TID 0000.0001)  ploadbar=  1.01113641628088E+05
 cg2d: Sum(rhs),rhsMax =  -4.58096885650525E+01  1.60689825124501E+00
(PID.TID 0000.0001)  ploadbar=  1.01113840175503E+05
 cg2d: Sum(rhs),rhsMax =  -4.44929340105793E+01  1.65421563397991E+00
(PID.TID 0000.0001)  ploadbar=  1.01113658029869E+05
 cg2d: Sum(rhs),rhsMax =  -4.35532631870963E+01  1.68960895134531E+00
(PID.TID 0000.0001)  ploadbar=  1.01113475884235E+05
 cg2d: Sum(rhs),rhsMax =  -4.29550776948470E+01  1.71277984592235E+00
(PID.TID 0000.0001)  ploadbar=  1.01113293738601E+05
 cg2d: Sum(rhs),rhsMax =  -4.30468347077873E+01  1.70871019182427E+00
(PID.TID 0000.0001)  ploadbar=  1.01113111592967E+05
 cg2d: Sum(rhs),rhsMax =  -4.35236645950532E+01  1.68951257358159E+00
(PID.TID 0000.0001)  ploadbar=  1.01112929447333E+05
 cg2d: Sum(rhs),rhsMax =  -4.40772444446508E+01  1.66775545036346E+00
(PID.TID 0000.0001)  ploadbar=  1.01112747301699E+05
 cg2d: Sum(rhs),rhsMax =  -4.46938769031554E+01  1.64430718459841E+00
(PID.TID 0000.0001)  ploadbar=  1.01112118974780E+05
 cg2d: Sum(rhs),rhsMax =  -4.53060525989260E+01  1.62174148205366E+00
(PID.TID 0000.0001)  ploadbar=  1.01111490647860E+05
 cg2d: Sum(rhs),rhsMax =  -4.59174209583219E+01  1.59988485670171E+00
(PID.TID 0000.0001)  ploadbar=  1.01110862320941E+05
 cg2d: Sum(rhs),rhsMax =  -4.64992709926831E+01  1.57967767313018E+00
(PID.TID 0000.0001)  ploadbar=  1.01110233994022E+05
 cg2d: Sum(rhs),rhsMax =  -4.70232062246372E+01  1.56196081718405E+00
(PID.TID 0000.0001)  ploadbar=  1.01109605667102E+05
 cg2d: Sum(rhs),rhsMax =  -4.74604436499331E+01  1.54752260480681E+00
(PID.TID 0000.0001)  ploadbar=  1.01108977340183E+05
 cg2d: Sum(rhs),rhsMax =  -4.78100824314770E+01  1.53612556980425E+00
(PID.TID 0000.0001)  ploadbar=  1.01108172380060E+05
 cg2d: Sum(rhs),rhsMax =  -4.82168360288484E+01  1.52304596548146E+00
(PID.TID 0000.0001)  ploadbar=  1.01107367419937E+05
 cg2d: Sum(rhs),rhsMax =  -4.86797269721331E+01  1.50839241086846E+00
(PID.TID 0000.0001)  ploadbar=  1.01106562459815E+05
 cg2d: Sum(rhs),rhsMax =  -4.91572757963898E+01  1.49351187294935E+00
(PID.TID 0000.0001)  ploadbar=  1.01105757499692E+05
 cg2d: Sum(rhs),rhsMax =  -4.96142765421358E+01  1.47946759927863E+00
(PID.TID 0000.0001)  ploadbar=  1.01104952539569E+05
 cg2d: Sum(rhs),rhsMax =  -5.00098108489361E+01  1.46741298504452E+00
(PID.TID 0000.0001)  ploadbar=  1.01104147579447E+05
 cg2d: Sum(rhs),rhsMax =  -5.03740253316379E+01  1.45646567791234E+00
(PID.TID 0000.0001)  ploadbar=  1.01104518031023E+05
 cg2d: Sum(rhs),rhsMax =  -5.08037795236444E+01  1.44381771361085E+00
(PID.TID 0000.0001)  ploadbar=  1.01104888482600E+05
 cg2d: Sum(rhs),rhsMax =  -5.12719978045711E+01  1.43030792360146E+00
(PID.TID 0000.0001)  ploadbar=  1.01105258934177E+05
 cg2d: Sum(rhs),rhsMax =  -5.17361751675883E+01  1.41714774283789E+00
(PID.TID 0000.0001)  ploadbar=  1.01105629385753E+05
 cg2d: Sum(rhs),rhsMax =  -5.21604650557395E+01  1.40528645969233E+00
(PID.TID 0000.0001)  ploadbar=  1.01105999837330E+05
 cg2d: Sum(rhs),rhsMax =  -5.25463672885432E+01  1.39462159400338E+00
(PID.TID 0000.0001)  ploadbar=  1.01106370288907E+05
 cg2d: Sum(rhs),rhsMax =  -5.29953670984795E+01  1.38240259908782E+00
(PID.TID 0000.0001)  ploadbar=  1.01105823844852E+05
 cg2d: Sum(rhs),rhsMax =  -5.34253904855150E+01  1.37081064791060E+00
(PID.TID 0000.0001)  ploadbar=  1.01105277400797E+05
 cg2d: Sum(rhs),rhsMax =  -5.38488860803329E+01  1.35950283650874E+00
(PID.TID 0000.0001)  ploadbar=  1.01104730956742E+05
 cg2d: Sum(rhs),rhsMax =  -5.42106242432842E+01  1.34984033916428E+00
(PID.TID 0000.0001)  ploadbar=  1.01104184512687E+05
 cg2d: Sum(rhs),rhsMax =  -5.46869717391957E+01  1.33742814569011E+00
(PID.TID 0000.0001)  ploadbar=  1.01103638068632E+05
 cg2d: Sum(rhs),rhsMax =  -5.50914711532957E+01  1.32688925665805E+00
(PID.TID 0000.0001)  ploadbar=  1.01103091624577E+05
 cg2d: Sum(rhs),rhsMax =  -5.54329898736169E+01  1.31809804117246E+00
(PID.TID 0000.0001)  ploadbar=  1.01102887685749E+05
 cg2d: Sum(rhs),rhsMax =  -5.57539524372974E+01  1.30999061342967E+00
(PID.TID 0000.0001)  ploadbar=  1.01102683746921E+05
 cg2d: Sum(rhs),rhsMax =  -5.60946165900218E+01  1.30160823101306E+00
(PID.TID 0000.0001)  ploadbar=  1.01102479808092E+05
 cg2d: Sum(rhs),rhsMax =  -5.64465347529699E+01  1.29315750575441E+00
(PID.TID 0000.0001)  ploadbar=  1.01102275869264E+05
 cg2d: Sum(rhs),rhsMax =  -5.68044607184724E+01  1.28475988796174E+00
(PID.TID 0000.0001)  ploadbar=  1.01102071930436E+05
 cg2d: Sum(rhs),rhsMax =  -5.71354945662157E+01  1.27715136111069E+00
(PID.TID 0000.0001)  ploadbar=  1.01101867991608E+05
 cg2d: Sum(rhs),rhsMax =  -5.74254166256274E+01  1.27050873727600E+00
(PID.TID 0000.0001)  ploadbar=  1.01102786265142E+05
 cg2d: Sum(rhs),rhsMax =  -5.76915886809177E+01  1.26441770897207E+00
(PID.TID 0000.0001)  ploadbar=  1.01103704538675E+05
 cg2d: Sum(rhs),rhsMax =  -5.79256901966823E+01  1.25903540949800E+00
(PID.TID 0000.0001)  ploadbar=  1.01104622812208E+05
 cg2d: Sum(rhs),rhsMax =  -5.81233718414679E+01  1.25443331210878E+00
(PID.TID 0000.0001)  ploadbar=  1.01105541085742E+05
 cg2d: Sum(rhs),rhsMax =  -5.83254230402472E+01  1.24971764134690E+00
(PID.TID 0000.0001)  ploadbar=  1.01106459359275E+05
 cg2d: Sum(rhs),rhsMax =  -5.85350191313901E+01  1.24481920237698E+00
(PID.TID 0000.0001)  ploadbar=  1.01107377632809E+05
 cg2d: Sum(rhs),rhsMax =  -5.87529427509332E+01  1.23983598242413E+00
(PID.TID 0000.0001)  ploadbar=  1.01107577195296E+05
 cg2d: Sum(rhs),rhsMax =  -5.85412816762665E+01  1.24400260598732E+00
(PID.TID 0000.0001)  ploadbar=  1.01107776757784E+05
 cg2d: Sum(rhs),rhsMax =  -5.75303337136047E+01  1.26558223747704E+00
(PID.TID 0000.0001)  ploadbar=  1.01107976320272E+05
 cg2d: Sum(rhs),rhsMax =  -5.65435503376306E+01  1.28741721022557E+00
(PID.TID 0000.0001)  ploadbar=  1.01108175882759E+05
 cg2d: Sum(rhs),rhsMax =  -5.55833568851388E+01  1.30942863440672E+00
(PID.TID 0000.0001)  ploadbar=  1.01108375445247E+05
 cg2d: Sum(rhs),rhsMax =  -5.46539612465560E+01  1.33148459736786E+00
(PID.TID 0000.0001)  ploadbar=  1.01108575007735E+05
 cg2d: Sum(rhs),rhsMax =  -5.37597562236814E+01  1.35337281497382E+00
(PID.TID 0000.0001)  ploadbar=  1.01108930100495E+05
 cg2d: Sum(rhs),rhsMax =  -5.29191972559857E+01  1.37455933800852E+00
(PID.TID 0000.0001)  ploadbar=  1.01109285193254E+05
 cg2d: Sum(rhs),rhsMax =  -5.21387971750450E+01  1.39476875043621E+00
(PID.TID 0000.0001)  ploadbar=  1.01109640286013E+05
 cg2d: Sum(rhs),rhsMax =  -5.14179229966910E+01  1.41390375334402E+00
(PID.TID 0000.0001)  ploadbar=  1.01109995378773E+05
 cg2d: Sum(rhs),rhsMax =  -5.07529424544480E+01  1.43195252113817E+00
(PID.TID 0000.0001)  ploadbar=  1.01110350471533E+05
 cg2d: Sum(rhs),rhsMax =  -5.01388448396737E+01  1.44895930814188E+00
(PID.TID 0000.0001)  ploadbar=  1.01110705564292E+05
 cg2d: Sum(rhs),rhsMax =  -4.95790560358985E+01  1.46486192135830E+00
(PID.TID 0000.0001)  ploadbar=  1.01112725634123E+05
 cg2d: Sum(rhs),rhsMax =  -4.90542625653402E+01  1.48014662510923E+00
(PID.TID 0000.0001)  ploadbar=  1.01114745703954E+05
 cg2d: Sum(rhs),rhsMax =  -4.85536341282180E+01  1.49509192524176E+00
(PID.TID 0000.0001)  ploadbar=  1.01116765773785E+05
 cg2d: Sum(rhs),rhsMax =  -4.80748849021020E+01  1.50973201011645E+00
(PID.TID 0000.0001)  ploadbar=  1.01118785843616E+05
 cg2d: Sum(rhs),rhsMax =  -4.76206923860103E+01  1.52394601370773E+00
(PID.TID 0000.0001)  ploadbar=  1.01120805913447E+05
 cg2d: Sum(rhs),rhsMax =  -4.71961688973809E+01  1.53753050220340E+00
(PID.TID 0000.0001)  ploadbar=  1.01122825983278E+05
 cg2d: Sum(rhs),rhsMax =  -4.67881922608046E+01  1.55075109467589E+00
(PID.TID 0000.0001)  ploadbar=  1.01122881896408E+05
 cg2d: Sum(rhs),rhsMax =  -4.63888278929398E+01  1.56384232818328E+00
(PID.TID 0000.0001)  ploadbar=  1.01122937809538E+05
 cg2d: Sum(rhs),rhsMax =  -4.59878275090100E+01  1.57713992370221E+00
(PID.TID 0000.0001)  ploadbar=  1.01122993722667E+05
 cg2d: Sum(rhs),rhsMax =  -4.56068844797220E+01  1.58989066594991E+00
(PID.TID 0000.0001)  ploadbar=  1.01123049635797E+05
 cg2d: Sum(rhs),rhsMax =  -4.52569980310637E+01  1.60167208482554E+00
(PID.TID 0000.0001)  ploadbar=  1.01123105548927E+05
 cg2d: Sum(rhs),rhsMax =  -4.49530988437879E+01  1.61189980862921E+00
(PID.TID 0000.0001)  ploadbar=  1.01123161462057E+05
 cg2d: Sum(rhs),rhsMax =  -4.47177752501458E+01  1.61980928901716E+00
(PID.TID 0000.0001)  ploadbar=  1.01121832884775E+05
 cg2d: Sum(rhs),rhsMax =  -4.45303515818380E+01  1.62607461799322E+00
(PID.TID 0000.0001)  ploadbar=  1.01120504307493E+05
 cg2d: Sum(rhs),rhsMax =  -4.43850685366557E+01  1.63085454492656E+00
(PID.TID 0000.0001)  ploadbar=  1.01119175730211E+05
 cg2d: Sum(rhs),rhsMax =  -4.42786186638450E+01  1.63423373158863E+00
(PID.TID 0000.0001)  ploadbar=  1.01117847152929E+05
 cg2d: Sum(rhs),rhsMax =  -4.42056075765933E+01  1.63638384837743E+00
(PID.TID 0000.0001)  ploadbar=  1.01116518575647E+05
 cg2d: Sum(rhs),rhsMax =  -4.41614917739482E+01  1.63745420471971E+00
(PID.TID 0000.0001)  ploadbar=  1.01115189998365E+05
 cg2d: Sum(rhs),rhsMax =  -4.38119993665714E+01  1.64989911438647E+00
(PID.TID 0000.0001)  ploadbar=  1.01114923660619E+05
 cg2d: Sum(rhs),rhsMax =  -4.32377936567245E+01  1.67113314195519E+00
(PID.TID 0000.0001)  ploadbar=  1.01114657322873E+05
 cg2d: Sum(rhs),rhsMax =  -4.27203551185409E+01  1.69063042689735E+00
(PID.TID 0000.0001)  ploadbar=  1.01114390985127E+05
 cg2d: Sum(rhs),rhsMax =  -4.22462381766734E+01  1.70878603842131E+00
(PID.TID 0000.0001)  ploadbar=  1.01114124647381E+05
 cg2d: Sum(rhs),rhsMax =  -4.18085946659392E+01  1.72578295164486E+00
(PID.TID 0000.0001)  ploadbar=  1.01113858309635E+05
 cg2d: Sum(rhs),rhsMax =  -4.13986697768168E+01  1.74190701562972E+00
(PID.TID 0000.0001)  ploadbar=  1.01113591971889E+05
 cg2d: Sum(rhs),rhsMax =  -4.10053509649432E+01  1.75778594878183E+00
(PID.TID 0000.0001)  ploadbar=  1.01112700354061E+05
 cg2d: Sum(rhs),rhsMax =  -4.06221908690275E+01  1.77366545610390E+00
(PID.TID 0000.0001)  ploadbar=  1.01111808736234E+05
 cg2d: Sum(rhs),rhsMax =  -4.02387263607073E+01  1.78999617688200E+00
(PID.TID 0000.0001)  ploadbar=  1.01110917118407E+05
 cg2d: Sum(rhs),rhsMax =  -3.98503429128146E+01  1.80699042625493E+00
(PID.TID 0000.0001)  ploadbar=  1.01110025500579E+05
 cg2d: Sum(rhs),rhsMax =  -3.94611920664734E+01  1.82447174430207E+00
(PID.TID 0000.0001)  ploadbar=  1.01109133882752E+05
 cg2d: Sum(rhs),rhsMax =  -3.90772377359553E+01  1.84216402866577E+00
(PID.TID 0000.0001)  ploadbar=  1.01108242264925E+05
 cg2d: Sum(rhs),rhsMax =  -3.87086286126253E+01  1.85942173999710E+00
(PID.TID 0000.0001)  ploadbar=  1.01108189943980E+05
 cg2d: Sum(rhs),rhsMax =  -3.83746392536652E+01  1.87525702411483E+00
(PID.TID 0000.0001)  ploadbar=  1.01108137623035E+05
 cg2d: Sum(rhs),rhsMax =  -3.80784014167438E+01  1.88942697550453E+00
(PID.TID 0000.0001)  ploadbar=  1.01108085302091E+05
 cg2d: Sum(rhs),rhsMax =  -3.78196954186958E+01  1.90185199692885E+00
(PID.TID 0000.0001)  ploadbar=  1.01108032981146E+05
 cg2d: Sum(rhs),rhsMax =  -3.75931672668625E+01  1.91272150060124E+00
(PID.TID 0000.0001)  ploadbar=  1.01107980660201E+05
 cg2d: Sum(rhs),rhsMax =  -3.73917992030231E+01  1.92233488889004E+00
(PID.TID 0000.0001)  ploadbar=  1.01107928339257E+05
 cg2d: Sum(rhs),rhsMax =  -3.72107940034441E+01  1.93107506804887E+00
(PID.TID 0000.0001)  ploadbar=  1.01108618194059E+05
 cg2d: Sum(rhs),rhsMax =  -3.70491621943042E+01  1.93895376012307E+00
(PID.TID 0000.0001)  ploadbar=  1.01109308048861E+05
 cg2d: Sum(rhs),rhsMax =  -3.69045991973670E+01  1.94604711953537E+00
(PID.TID 0000.0001)  ploadbar=  1.01109997903663E+05
 cg2d: Sum(rhs),rhsMax =  -3.67770960448129E+01  1.95232239502713E+00
(PID.TID 0000.0001)  ploadbar=  1.01110687758465E+05
 cg2d: Sum(rhs),rhsMax =  -3.66655273968031E+01  1.95780813488462E+00
(PID.TID 0000.0001)  ploadbar=  1.01111377613267E+05
 cg2d: Sum(rhs),rhsMax =  -3.65697193043161E+01  1.96248679690730E+00
(PID.TID 0000.0001)  ploadbar=  1.01112067468069E+05
 cg2d: Sum(rhs),rhsMax =  -3.64915551491827E+01  1.96619482986250E+00
(PID.TID 0000.0001)  ploadbar=  1.01113054428766E+05
 cg2d: Sum(rhs),rhsMax =  -3.64316272565000E+01  1.96888647539486E+00
(PID.TID 0000.0001)  ploadbar=  1.01114041389463E+05
 cg2d: Sum(rhs),rhsMax =  -3.63903743965772E+01  1.97052533338891E+00
(PID.TID 0000.0001)  ploadbar=  1.01115028350160E+05
 cg2d: Sum(rhs),rhsMax =  -3.63679149141116E+01  1.97109707801728E+00
(PID.TID 0000.0001)  ploadbar=  1.01116015310857E+05
 cg2d: Sum(rhs),rhsMax =  -3.63610101199340E+01  1.97077010281570E+00
(PID.TID 0000.0001)  ploadbar=  1.01117002271554E+05
 cg2d: Sum(rhs),rhsMax =  -3.63678402534423E+01  1.96964478148359E+00
(PID.TID 0000.0001)  ploadbar=  1.01117989232251E+05
 cg2d: Sum(rhs),rhsMax =  -3.63937272832922E+01  1.96759487539390E+00
(PID.TID 0000.0001)  ploadbar=  1.01118228414415E+05
 cg2d: Sum(rhs),rhsMax =  -3.64335547218724E+01  1.96488973716584E+00
(PID.TID 0000.0001)  ploadbar=  1.01118467596579E+05
 cg2d: Sum(rhs),rhsMax =  -3.64831204839610E+01  1.96175619867201E+00
(PID.TID 0000.0001)  ploadbar=  1.01118706778743E+05
 cg2d: Sum(rhs),rhsMax =  -3.65421213851625E+01  1.95820680439621E+00
(PID.TID 0000.0001)  ploadbar=  1.01118945960907E+05
 cg2d: Sum(rhs),rhsMax =  -3.66097563872967E+01  1.95427800904931E+00
(PID.TID 0000.0001)  ploadbar=  1.01119185143072E+05
 cg2d: Sum(rhs),rhsMax =  -3.66838168125254E+01  1.95008127177310E+00
(PID.TID 0000.0001)  ploadbar=  1.01119424325236E+05
 cg2d: Sum(rhs),rhsMax =  -3.67684281823442E+01  1.94529715429417E+00
(PID.TID 0000.0001)  ploadbar=  1.01119649442824E+05
 cg2d: Sum(rhs),rhsMax =  -3.68638614961666E+01  1.93992238027514E+00
(PID.TID 0000.0001)  ploadbar=  1.01119874560413E+05
 cg2d: Sum(rhs),rhsMax =  -3.69745544805110E+01  1.93372832330600E+00
(PID.TID 0000.0001)  ploadbar=  1.01120099678001E+05
 cg2d: Sum(rhs),rhsMax =  -3.71060537578444E+01  1.92644044179003E+00
(PID.TID 0000.0001)  ploadbar=  1.01120324795589E+05
 cg2d: Sum(rhs),rhsMax =  -3.72490527732619E+01  1.91855373222615E+00
(PID.TID 0000.0001)  ploadbar=  1.01120549913178E+05
 cg2d: Sum(rhs),rhsMax =  -3.73869238933577E+01  1.91092864912792E+00
(PID.TID 0000.0001)  ploadbar=  1.01120775030766E+05
 cg2d: Sum(rhs),rhsMax =  -3.75089762679637E+01  1.90430866122852E+00
(PID.TID 0000.0001)  ploadbar=  1.01122288258138E+05
 cg2d: Sum(rhs),rhsMax =  -3.76449430987793E+01  1.89716096648873E+00
(PID.TID 0000.0001)  ploadbar=  1.01123801485510E+05
 cg2d: Sum(rhs),rhsMax =  -3.78111654749856E+01  1.88867129974549E+00
(PID.TID 0000.0001)  ploadbar=  1.01125314712881E+05
 cg2d: Sum(rhs),rhsMax =  -3.80134201273029E+01  1.87858056041662E+00
(PID.TID 0000.0001)  ploadbar=  1.01126827940253E+05
 cg2d: Sum(rhs),rhsMax =  -3.82559719409140E+01  1.86672935817079E+00
(PID.TID 0000.0001)  ploadbar=  1.01128341167624E+05
 cg2d: Sum(rhs),rhsMax =  -3.85431211963066E+01  1.85297002685286E+00
(PID.TID 0000.0001)  ploadbar=  1.01129854394996E+05
 cg2d: Sum(rhs),rhsMax =  -3.88776132295579E+01  1.83712961823060E+00
(PID.TID 0000.0001)  ploadbar=  1.01129926671459E+05
 cg2d: Sum(rhs),rhsMax =  -3.92548726165026E+01  1.81952727394080E+00
(PID.TID 0000.0001)  ploadbar=  1.01129998947923E+05
 cg2d: Sum(rhs),rhsMax =  -3.96911568446599E+01  1.79952827279587E+00
(PID.TID 0000.0001)  ploadbar=  1.01130071224387E+05
 cg2d: Sum(rhs),rhsMax =  -4.01899368101201E+01  1.77714380546183E+00
(PID.TID 0000.0001)  ploadbar=  1.01130143500850E+05
 cg2d: Sum(rhs),rhsMax =  -4.07560039340266E+01  1.75235565926769E+00
(PID.TID 0000.0001)  ploadbar=  1.01130215777314E+05
 cg2d: Sum(rhs),rhsMax =  -4.13979105733885E+01  1.72502324716701E+00
(PID.TID 0000.0001)  ploadbar=  1.01130288053777E+05
 cg2d: Sum(rhs),rhsMax =  -4.21222412306886E+01  1.69528213918551E+00
(PID.TID 0000.0001)  ploadbar=  1.01131408724692E+05
 cg2d: Sum(rhs),rhsMax =  -4.29156924105444E+01  1.66393095656809E+00
(PID.TID 0000.0001)  ploadbar=  1.01132529395606E+05
 cg2d: Sum(rhs),rhsMax =  -4.37838553868098E+01  1.63099562211110E+00
(PID.TID 0000.0001)  ploadbar=  1.01133650066520E+05
 cg2d: Sum(rhs),rhsMax =  -4.47190131678781E+01  1.59699930977890E+00
(PID.TID 0000.0001)  ploadbar=  1.01134770737435E+05
 cg2d: Sum(rhs),rhsMax =  -4.57134288726498E+01  1.56241048431238E+00
(PID.TID 0000.0001)  ploadbar=  1.01135891408349E+05
 cg2d: Sum(rhs),rhsMax =  -4.67612750010457E+01  1.52757707459103E+00
(PID.TID 0000.0001)  ploadbar=  1.01137012079263E+05
 cg2d: Sum(rhs),rhsMax =  -4.78439645147766E+01  1.49311547156231E+00
(PID.TID 0000.0001)  ploadbar=  1.01137966259895E+05
 cg2d: Sum(rhs),rhsMax =  -4.84881409036914E+01  1.47330886669700E+00
(PID.TID 0000.0001)  ploadbar=  1.01138920440526E+05
 cg2d: Sum(rhs),rhsMax =  -4.85837989701291E+01  1.47034861620932E+00
(PID.TID 0000.0001)  ploadbar=  1.01139874621157E+05
 cg2d: Sum(rhs),rhsMax =  -4.86809048765027E+01  1.46725107823508E+00
(PID.TID 0000.0001)  ploadbar=  1.01140828801789E+05
 cg2d: Sum(rhs),rhsMax =  -4.87796942163867E+01  1.46400168480530E+00
(PID.TID 0000.0001)  ploadbar=  1.01141782982420E+05
 cg2d: Sum(rhs),rhsMax =  -4.88085760107317E+01  1.46273398863770E+00
(PID.TID 0000.0001)  ploadbar=  1.01142737163051E+05
 cg2d: Sum(rhs),rhsMax =  -4.86436665476320E+01  1.46733415174642E+00
(PID.TID 0000.0001)  ploadbar=  1.01144407810080E+05
 cg2d: Sum(rhs),rhsMax =  -4.85132807786681E+01  1.47094983277178E+00
(PID.TID 0000.0001)  ploadbar=  1.01146078457110E+05
 cg2d: Sum(rhs),rhsMax =  -4.84015214052613E+01  1.47403653753108E+00
(PID.TID 0000.0001)  ploadbar=  1.01147749104139E+05
 cg2d: Sum(rhs),rhsMax =  -4.83008483922218E+01  1.47681416373226E+00
(PID.TID 0000.0001)  ploadbar=  1.01149419751169E+05
 cg2d: Sum(rhs),rhsMax =  -4.82072179606116E+01  1.47939184293626E+00
(PID.TID 0000.0001)  ploadbar=  1.01151090398198E+05
 cg2d: Sum(rhs),rhsMax =  -4.81186650761548E+01  1.48181311063309E+00
(PID.TID 0000.0001)  ploadbar=  1.01152761045227E+05
 cg2d: Sum(rhs),rhsMax =  -4.80213927738662E+01  1.48449065518844E+00
(PID.TID 0000.0001)  ploadbar=  1.01153494401491E+05
 cg2d: Sum(rhs),rhsMax =  -4.79277544282762E+01  1.48703592320846E+00
(PID.TID 0000.0001)  ploadbar=  1.01154227757756E+05
 cg2d: Sum(rhs),rhsMax =  -4.78246407301436E+01  1.48985584675035E+00
(PID.TID 0000.0001)  ploadbar=  1.01154961114019E+05
 cg2d: Sum(rhs),rhsMax =  -4.77090165827258E+01  1.49305055453935E+00
(PID.TID 0000.0001)  ploadbar=  1.01155694470283E+05
 cg2d: Sum(rhs),rhsMax =  -4.75840385401640E+01  1.49652400316337E+00
(PID.TID 0000.0001)  ploadbar=  1.01156427826548E+05
 cg2d: Sum(rhs),rhsMax =  -4.74560454136674E+01  1.50007629514765E+00
(PID.TID 0000.0001)  ploadbar=  1.01157161182812E+05
 cg2d: Sum(rhs),rhsMax =  -4.73162271544447E+01  1.50412453970287E+00
(PID.TID 0000.0001)  ploadbar=  1.01158005252229E+05
 cg2d: Sum(rhs),rhsMax =  -4.71823024544264E+01  1.50810675482633E+00
(PID.TID 0000.0001)  ploadbar=  1.01158849321647E+05
 cg2d: Sum(rhs),rhsMax =  -4.70636080205248E+01  1.51171933423848E+00
(PID.TID 0000.0001)  ploadbar=  1.01159693391064E+05
 cg2d: Sum(rhs),rhsMax =  -4.69506318806740E+01  1.51525825198560E+00
(PID.TID 0000.0001)  ploadbar=  1.01160537460482E+05
 cg2d: Sum(rhs),rhsMax =  -4.68433244340784E+01  1.51871470506510E+00
(PID.TID 0000.0001)  ploadbar=  1.01161381529900E+05
 cg2d: Sum(rhs),rhsMax =  -4.67405668984010E+01  1.52211487463301E+00
(PID.TID 0000.0001)  ploadbar=  1.01162225599317E+05
 cg2d: Sum(rhs),rhsMax =  -4.66336707894398E+01  1.52559111800306E+00
(PID.TID 0000.0001)  ploadbar=  1.01162543498969E+05
 cg2d: Sum(rhs),rhsMax =  -4.65240409690170E+01  1.52909266335422E+00
(PID.TID 0000.0001)  ploadbar=  1.01162861398621E+05
 cg2d: Sum(rhs),rhsMax =  -4.64153630694509E+01  1.53249212656227E+00
(PID.TID 0000.0001)  ploadbar=  1.01163179298272E+05
 cg2d: Sum(rhs),rhsMax =  -4.63025995160123E+01  1.53594534802492E+00
(PID.TID 0000.0001)  ploadbar=  1.01163497197924E+05
 cg2d: Sum(rhs),rhsMax =  -4.61842265364098E+01  1.53950900084716E+00
(PID.TID 0000.0001)  ploadbar=  1.01163815097576E+05
 cg2d: Sum(rhs),rhsMax =  -4.60582353242229E+01  1.54325305499116E+00
(PID.TID 0000.0001)  ploadbar=  1.01164132997227E+05
 cg2d: Sum(rhs),rhsMax =  -4.59546378781982E+01  1.54630946253080E+00
(PID.TID 0000.0001)  ploadbar=  1.01162905630909E+05
 cg2d: Sum(rhs),rhsMax =  -4.58642778505563E+01  1.54896217101216E+00
(PID.TID 0000.0001)  ploadbar=  1.01161678264590E+05
 cg2d: Sum(rhs),rhsMax =  -4.57800470750081E+01  1.55143552490738E+00
(PID.TID 0000.0001)  ploadbar=  1.01160450898271E+05
 cg2d: Sum(rhs),rhsMax =  -4.57046098824038E+01  1.55363760241801E+00
(PID.TID 0000.0001)  ploadbar=  1.01159223531953E+05
 cg2d: Sum(rhs),rhsMax =  -4.56392624481449E+01  1.55551751144040E+00
(PID.TID 0000.0001)  ploadbar=  1.01157996165634E+05
 cg2d: Sum(rhs),rhsMax =  -4.55844515768584E+01  1.55705679360750E+00
(PID.TID 0000.0001)  ploadbar=  1.01156768799316E+05
 cg2d: Sum(rhs),rhsMax =  -4.55561709145467E+01  1.55764655732830E+00
(PID.TID 0000.0001)  ploadbar=  1.01155797586106E+05
 cg2d: Sum(rhs),rhsMax =  -4.55493715691781E+01  1.55745258819554E+00
(PID.TID 0000.0001)  ploadbar=  1.01154826372897E+05
 cg2d: Sum(rhs),rhsMax =  -4.55570074816836E+01  1.55671385024562E+00
(PID.TID 0000.0001)  ploadbar=  1.01153855159687E+05
 cg2d: Sum(rhs),rhsMax =  -4.55907125970543E+01  1.55503270730022E+00
(PID.TID 0000.0001)  ploadbar=  1.01152883946478E+05
 cg2d: Sum(rhs),rhsMax =  -4.56415399898200E+01  1.55271666600276E+00
(PID.TID 0000.0001)  ploadbar=  1.01151912733269E+05
 cg2d: Sum(rhs),rhsMax =  -4.56916374957183E+01  1.55037476284777E+00
(PID.TID 0000.0001)  ploadbar=  1.01150941520059E+05
 cg2d: Sum(rhs),rhsMax =  -4.57404415427813E+01  1.54815755306252E+00
(PID.TID 0000.0001)  ploadbar=  1.01150927752545E+05
 cg2d: Sum(rhs),rhsMax =  -4.58293138662488E+01  1.54466228091510E+00
(PID.TID 0000.0001)  ploadbar=  1.01150913985031E+05
 cg2d: Sum(rhs),rhsMax =  -4.59417118693763E+01  1.54045397008853E+00
(PID.TID 0000.0001)  ploadbar=  1.01150900217518E+05
 cg2d: Sum(rhs),rhsMax =  -4.60854383438698E+01  1.53528103386087E+00
(PID.TID 0000.0001)  ploadbar=  1.01150886450004E+05
 cg2d: Sum(rhs),rhsMax =  -4.62750226050178E+01  1.52867108100095E+00
(PID.TID 0000.0001)  ploadbar=  1.01150872682490E+05
 cg2d: Sum(rhs),rhsMax =  -4.65130172626297E+01  1.52056889941683E+00
(PID.TID 0000.0001)  ploadbar=  1.01150858914976E+05
 cg2d: Sum(rhs),rhsMax =  -4.67712849705820E+01  1.51182274687535E+00
(PID.TID 0000.0001)  ploadbar=  1.01150223898908E+05
 cg2d: Sum(rhs),rhsMax =  -4.70998154398245E+01  1.50085260327034E+00
(PID.TID 0000.0001)  ploadbar=  1.01149588882841E+05
 cg2d: Sum(rhs),rhsMax =  -4.74918161523994E+01  1.48796127055588E+00
(PID.TID 0000.0001)  ploadbar=  1.01148953866773E+05
 cg2d: Sum(rhs),rhsMax =  -4.79398453783862E+01  1.47346972843418E+00
(PID.TID 0000.0001)  ploadbar=  1.01148318850705E+05
 cg2d: Sum(rhs),rhsMax =  -4.84131473554068E+01  1.45839339122553E+00
(PID.TID 0000.0001)  ploadbar=  1.01147683834638E+05
 cg2d: Sum(rhs),rhsMax =  -4.88576378896157E+01  1.44436411933720E+00
(PID.TID 0000.0001)  ploadbar=  1.01147048818570E+05
 cg2d: Sum(rhs),rhsMax =  -4.93746537114154E+01  1.42855870429086E+00
(PID.TID 0000.0001)  ploadbar=  1.01146880866960E+05
 cg2d: Sum(rhs),rhsMax =  -4.98019663602997E+01  1.41568533005311E+00
(PID.TID 0000.0001)  ploadbar=  1.01146712915350E+05
 cg2d: Sum(rhs),rhsMax =  -5.01827992021368E+01  1.40437793837013E+00
(PID.TID 0000.0001)  ploadbar=  1.01146544963740E+05
 cg2d: Sum(rhs),rhsMax =  -5.04505209910340E+01  1.39640406704107E+00
(PID.TID 0000.0001)  ploadbar=  1.01146377012130E+05
 cg2d: Sum(rhs),rhsMax =  -5.04756326732335E+01  1.39521795243714E+00
(PID.TID 0000.0001)  ploadbar=  1.01146209060520E+05
 cg2d: Sum(rhs),rhsMax =  -5.05203905392669E+01  1.39351059810773E+00
(PID.TID 0000.0001)  ploadbar=  1.01146041108910E+05
 cg2d: Sum(rhs),rhsMax =  -5.05465029869675E+01  1.39228033613490E+00
(PID.TID 0000.0001)  ploadbar=  1.01147284312505E+05
 cg2d: Sum(rhs),rhsMax =  -5.05255688757588E+01  1.39230629266152E+00
(PID.TID 0000.0001)  ploadbar=  1.01148527516100E+05
 cg2d: Sum(rhs),rhsMax =  -5.04813294814343E+01  1.39293463544853E+00
(PID.TID 0000.0001)  ploadbar=  1.01149770719695E+05
 cg2d: Sum(rhs),rhsMax =  -5.04199314672780E+01  1.39399743375759E+00
(PID.TID 0000.0001)  ploadbar=  1.01151013923290E+05
 cg2d: Sum(rhs),rhsMax =  -5.03426133984301E+01  1.39545878098748E+00
(PID.TID 0000.0001)  ploadbar=  1.01152257126885E+05
 cg2d: Sum(rhs),rhsMax =  -5.02537146450335E+01  1.39719918322168E+00
(PID.TID 0000.0001)  ploadbar=  1.01153500330480E+05
 cg2d: Sum(rhs),rhsMax =  -5.01729183404854E+01  1.39877174505712E+00
(PID.TID 0000.0001)  ploadbar=  1.01153030193644E+05
 cg2d: Sum(rhs),rhsMax =  -5.00993349722612E+01  1.40019914780722E+00
(PID.TID 0000.0001)  ploadbar=  1.01152560056807E+05
 cg2d: Sum(rhs),rhsMax =  -5.00154726120435E+01  1.40196774756339E+00
(PID.TID 0000.0001)  ploadbar=  1.01152089919971E+05
 cg2d: Sum(rhs),rhsMax =  -4.99362732601232E+01  1.40365627198667E+00
(PID.TID 0000.0001)  ploadbar=  1.01151619783135E+05
 cg2d: Sum(rhs),rhsMax =  -4.98596066956799E+01  1.40532146410610E+00
(PID.TID 0000.0001)  ploadbar=  1.01151149646298E+05
 cg2d: Sum(rhs),rhsMax =  -4.97856973109029E+01  1.40695729795545E+00
(PID.TID 0000.0001)  ploadbar=  1.01150679509462E+05
 cg2d: Sum(rhs),rhsMax =  -4.96945189814644E+01  1.40908989961377E+00
(PID.TID 0000.0001)  ploadbar=  1.01150935884804E+05
 cg2d: Sum(rhs),rhsMax =  -4.96071409519065E+01  1.41112213081185E+00
(PID.TID 0000.0001)  ploadbar=  1.01151192260146E+05
 cg2d: Sum(rhs),rhsMax =  -4.95196303785988E+01  1.41316154600909E+00
(PID.TID 0000.0001)  ploadbar=  1.01151448635488E+05
 cg2d: Sum(rhs),rhsMax =  -4.94316241545564E+01  1.41521695136551E+00
(PID.TID 0000.0001)  ploadbar=  1.01151705010830E+05
 cg2d: Sum(rhs),rhsMax =  -4.93429387865098E+01  1.41728935961002E+00
(PID.TID 0000.0001)  ploadbar=  1.01151961386172E+05
 cg2d: Sum(rhs),rhsMax =  -4.92526988974667E+01  1.41940254829413E+00
(PID.TID 0000.0001)  ploadbar=  1.01152217761514E+05
 cg2d: Sum(rhs),rhsMax =  -4.91655304971660E+01  1.42150315607374E+00
(PID.TID 0000.0001)  ploadbar=  1.01152458799058E+05
 cg2d: Sum(rhs),rhsMax =  -4.90943077397464E+01  1.42320906198038E+00
(PID.TID 0000.0001)  ploadbar=  1.01152699836601E+05
 cg2d: Sum(rhs),rhsMax =  -4.90215873244864E+01  1.42501370740208E+00
(PID.TID 0000.0001)  ploadbar=  1.01152940874144E+05
 cg2d: Sum(rhs),rhsMax =  -4.89525886460213E+01  1.42676131209828E+00
(PID.TID 0000.0001)  ploadbar=  1.01153181911688E+05
 cg2d: Sum(rhs),rhsMax =  -4.88850931746269E+01  1.42850970164491E+00
(PID.TID 0000.0001)  ploadbar=  1.01153422949231E+05
 cg2d: Sum(rhs),rhsMax =  -4.88139548807900E+01  1.43040012093013E+00
(PID.TID 0000.0001)  ploadbar=  1.01153663986774E+05
 cg2d: Sum(rhs),rhsMax =  -4.87183733639857E+01  1.43297696185186E+00
(PID.TID 0000.0001)  ploadbar=  1.01153844254821E+05
 cg2d: Sum(rhs),rhsMax =  -4.86069344672928E+01  1.43599153762527E+00
(PID.TID 0000.0001)  ploadbar=  1.01154024522869E+05
 cg2d: Sum(rhs),rhsMax =  -4.84605864088793E+01  1.44001496614070E+00
(PID.TID 0000.0001)  ploadbar=  1.01154204790916E+05
 cg2d: Sum(rhs),rhsMax =  -4.82771703061309E+01  1.44512823828125E+00
(PID.TID 0000.0001)  ploadbar=  1.01154385058963E+05
 cg2d: Sum(rhs),rhsMax =  -4.80730836095924E+01  1.45086006094024E+00
(PID.TID 0000.0001)  ploadbar=  1.01154565327010E+05
 cg2d: Sum(rhs),rhsMax =  -4.79013476377915E+01  1.45560931398464E+00
(PID.TID 0000.0001)  ploadbar=  1.01154745595057E+05
 cg2d: Sum(rhs),rhsMax =  -4.78562519954722E+01  1.45657541726104E+00
(PID.TID 0000.0001)  ploadbar=  1.01153682843670E+05
 cg2d: Sum(rhs),rhsMax =  -4.74970317882091E+01  1.46722531177656E+00
(PID.TID 0000.0001)  ploadbar=  1.01152620092283E+05
 cg2d: Sum(rhs),rhsMax =  -4.67251782681487E+01  1.49113062178325E+00
(PID.TID 0000.0001)  ploadbar=  1.01151557340896E+05
 cg2d: Sum(rhs),rhsMax =  -4.57864241778656E+01  1.52140128091438E+00
(PID.TID 0000.0001)  ploadbar=  1.01150494589509E+05
 cg2d: Sum(rhs),rhsMax =  -4.47291582933072E+01  1.55708534376087E+00
(PID.TID 0000.0001)  ploadbar=  1.01149431838122E+05
 cg2d: Sum(rhs),rhsMax =  -4.36422306530163E+01  1.59560928663784E+00
(PID.TID 0000.0001)  ploadbar=  1.01148369086735E+05
 cg2d: Sum(rhs),rhsMax =  -4.27017013920814E+01  1.63042796697675E+00
(PID.TID 0000.0001)  ploadbar=  1.01148542469625E+05
 cg2d: Sum(rhs),rhsMax =  -4.20139215250305E+01  1.65672000423898E+00
(PID.TID 0000.0001)  ploadbar=  1.01148715852514E+05
 cg2d: Sum(rhs),rhsMax =  -4.16741012786391E+01  1.66975598209414E+00
(PID.TID 0000.0001)  ploadbar=  1.01148889235404E+05
 cg2d: Sum(rhs),rhsMax =  -4.16866588278129E+01  1.66870400794747E+00
(PID.TID 0000.0001)  ploadbar=  1.01149062618293E+05
 cg2d: Sum(rhs),rhsMax =  -4.19877611645614E+01  1.65611881229492E+00
(PID.TID 0000.0001)  ploadbar=  1.01149236001183E+05
 cg2d: Sum(rhs),rhsMax =  -4.24826145661762E+01  1.63614012636755E+00
(PID.TID 0000.0001)  ploadbar=  1.01149409384072E+05
 cg2d: Sum(rhs),rhsMax =  -4.30890032096793E+01  1.61257894155024E+00
(PID.TID 0000.0001)  ploadbar=  1.01150632565562E+05
 cg2d: Sum(rhs),rhsMax =  -4.37476120181704E+01  1.58790186195944E+00
(PID.TID 0000.0001)  ploadbar=  1.01151855747052E+05
 cg2d: Sum(rhs),rhsMax =  -4.44196336379689E+01  1.56359553754238E+00
(PID.TID 0000.0001)  ploadbar=  1.01153078928542E+05
 cg2d: Sum(rhs),rhsMax =  -4.50915411504254E+01  1.54011819499647E+00
(PID.TID 0000.0001)  ploadbar=  1.01154302110032E+05
 cg2d: Sum(rhs),rhsMax =  -4.57506807725389E+01  1.51784518965770E+00
(PID.TID 0000.0001)  ploadbar=  1.01155525291521E+05
 cg2d: Sum(rhs),rhsMax =  -4.63903475111913E+01  1.49691500767967E+00
(PID.TID 0000.0001)  ploadbar=  1.01156748473011E+05
 cg2d: Sum(rhs),rhsMax =  -4.69993424016964E+01  1.47749479368087E+00
(PID.TID 0000.0001)  ploadbar=  1.01156512314979E+05
 cg2d: Sum(rhs),rhsMax =  -4.75982471944354E+01  1.45885697094449E+00
(PID.TID 0000.0001)  ploadbar=  1.01156276156947E+05
 cg2d: Sum(rhs),rhsMax =  -4.81853551039196E+01  1.44101746877494E+00
(PID.TID 0000.0001)  ploadbar=  1.01156039998915E+05
 cg2d: Sum(rhs),rhsMax =  -4.87747853318993E+01  1.42352227870571E+00
(PID.TID 0000.0001)  ploadbar=  1.01155803840883E+05
 cg2d: Sum(rhs),rhsMax =  -4.93785657668995E+01  1.40601258739486E+00
(PID.TID 0000.0001)  ploadbar=  1.01155567682851E+05
 cg2d: Sum(rhs),rhsMax =  -4.99976371670621E+01  1.38847565972771E+00
(PID.TID 0000.0001)  ploadbar=  1.01155331524819E+05
 cg2d: Sum(rhs),rhsMax =  -5.06198105097297E+01  1.37140918494577E+00
(PID.TID 0000.0001)  ploadbar=  1.01153876350117E+05
 cg2d: Sum(rhs),rhsMax =  -5.12688818522348E+01  1.35416663014212E+00
(PID.TID 0000.0001)  ploadbar=  1.01152421175416E+05
 cg2d: Sum(rhs),rhsMax =  -5.19209791807564E+01  1.33739470937401E+00
(PID.TID 0000.0001)  ploadbar=  1.01150966000714E+05
 cg2d: Sum(rhs),rhsMax =  -5.25869416802944E+01  1.32080515838404E+00
(PID.TID 0000.0001)  ploadbar=  1.01149510826013E+05
 cg2d: Sum(rhs),rhsMax =  -5.32661389496351E+01  1.30441602627253E+00
(PID.TID 0000.0001)  ploadbar=  1.01148055651311E+05
 cg2d: Sum(rhs),rhsMax =  -5.39576060279497E+01  1.28825111898440E+00
(PID.TID 0000.0001)  ploadbar=  1.01146600476610E+05
 cg2d: Sum(rhs),rhsMax =  -5.37853614472790E+01  1.29286088385810E+00
(PID.TID 0000.0001)  ploadbar=  1.01145950641015E+05
 cg2d: Sum(rhs),rhsMax =  -5.35688155422119E+01  1.29850054749483E+00
(PID.TID 0000.0001)  ploadbar=  1.01145300805421E+05
 cg2d: Sum(rhs),rhsMax =  -5.33458583626240E+01  1.30426720360360E+00
(PID.TID 0000.0001)  ploadbar=  1.01144650969826E+05
 cg2d: Sum(rhs),rhsMax =  -5.31137051245434E+01  1.31022864636862E+00
(PID.TID 0000.0001)  ploadbar=  1.01144001134232E+05
 cg2d: Sum(rhs),rhsMax =  -5.28751014898278E+01  1.31631610537759E+00
(PID.TID 0000.0001)  ploadbar=  1.01143351298637E+05
 cg2d: Sum(rhs),rhsMax =  -5.26325534295805E+01  1.32247118096273E+00
(PID.TID 0000.0001)  ploadbar=  1.01142701463043E+05
 cg2d: Sum(rhs),rhsMax =  -5.23929932380070E+01  1.32864151170675E+00
(PID.TID 0000.0001)  ploadbar=  1.01141542055132E+05
 cg2d: Sum(rhs),rhsMax =  -5.21598106926237E+01  1.33472356630607E+00
(PID.TID 0000.0001)  ploadbar=  1.01140382647221E+05
 cg2d: Sum(rhs),rhsMax =  -5.19463435909619E+01  1.34036642365427E+00
(PID.TID 0000.0001)  ploadbar=  1.01139223239310E+05
 cg2d: Sum(rhs),rhsMax =  -5.17513350173147E+01  1.34558538437548E+00
(PID.TID 0000.0001)  ploadbar=  1.01138063831400E+05
 cg2d: Sum(rhs),rhsMax =  -5.15763713539784E+01  1.35032182932017E+00
(PID.TID 0000.0001)  ploadbar=  1.01136904423489E+05
 cg2d: Sum(rhs),rhsMax =  -5.14240842756028E+01  1.35449183025877E+00
(PID.TID 0000.0001)  ploadbar=  1.01135745015578E+05
 cg2d: Sum(rhs),rhsMax =  -5.13054054272004E+01  1.35777465951010E+00
(PID.TID 0000.0001)  ploadbar=  1.01134984938961E+05
 cg2d: Sum(rhs),rhsMax =  -5.11964702459646E+01  1.36078898394069E+00
(PID.TID 0000.0001)  ploadbar=  1.01134224862345E+05
 cg2d: Sum(rhs),rhsMax =  -5.10990303152223E+01  1.36348243170509E+00
(PID.TID 0000.0001)  ploadbar=  1.01133464785728E+05
 cg2d: Sum(rhs),rhsMax =  -5.10096296088159E+01  1.36594132382487E+00
(PID.TID 0000.0001)  ploadbar=  1.01132704709111E+05
 cg2d: Sum(rhs),rhsMax =  -5.09267238995897E+01  1.36819870643479E+00
(PID.TID 0000.0001)  ploadbar=  1.01131944632495E+05
 cg2d: Sum(rhs),rhsMax =  -5.08467072976478E+01  1.37034345540146E+00
(PID.TID 0000.0001)  ploadbar=  1.01131184555878E+05
 cg2d: Sum(rhs),rhsMax =  -5.07930655052257E+01  1.37184960586937E+00
(PID.TID 0000.0001)  ploadbar=  1.01130477966648E+05
 cg2d: Sum(rhs),rhsMax =  -5.07529441175158E+01  1.37305596971217E+00
(PID.TID 0000.0001)  ploadbar=  1.01129771377418E+05
 cg2d: Sum(rhs),rhsMax =  -5.07168099851395E+01  1.37421241358602E+00
(PID.TID 0000.0001)  ploadbar=  1.01129064788188E+05
 cg2d: Sum(rhs),rhsMax =  -5.06871032214763E+01  1.37525230816057E+00
(PID.TID 0000.0001)  ploadbar=  1.01128358198959E+05
 cg2d: Sum(rhs),rhsMax =  -5.06640212118338E+01  1.37616451236294E+00
(PID.TID 0000.0001)  ploadbar=  1.01127651609729E+05
 cg2d: Sum(rhs),rhsMax =  -5.06460967175390E+01  1.37698117728618E+00
(PID.TID 0000.0001)  ploadbar=  1.01126945020499E+05
 cg2d: Sum(rhs),rhsMax =  -5.06294375156331E+01  1.37777099340974E+00
(PID.TID 0000.0001)  ploadbar=  1.01126154676232E+05
 cg2d: Sum(rhs),rhsMax =  -5.06203474242294E+01  1.37836100809457E+00
(PID.TID 0000.0001)  ploadbar=  1.01125364331966E+05
 cg2d: Sum(rhs),rhsMax =  -5.05877964171540E+01  1.37959053417300E+00
(PID.TID 0000.0001)  ploadbar=  1.01124573987699E+05
 cg2d: Sum(rhs),rhsMax =  -5.05999901522318E+01  1.37959370225762E+00
(PID.TID 0000.0001)  ploadbar=  1.01123783643433E+05
 cg2d: Sum(rhs),rhsMax =  -5.05914097821503E+01  1.38015422834185E+00
(PID.TID 0000.0001)  ploadbar=  1.01122993299166E+05
 cg2d: Sum(rhs),rhsMax =  -5.05832550440635E+01  1.38069130544113E+00
(PID.TID 0000.0001)  ploadbar=  1.01122202954900E+05
 cg2d: Sum(rhs),rhsMax =  -5.05628951001420E+01  1.38159708541144E+00
(PID.TID 0000.0001)  ploadbar=  1.01123286159355E+05
 cg2d: Sum(rhs),rhsMax =  -5.05451202950360E+01  1.38245918086790E+00
(PID.TID 0000.0001)  ploadbar=  1.01124369363810E+05
 cg2d: Sum(rhs),rhsMax =  -5.05335880410682E+01  1.38317178305024E+00
(PID.TID 0000.0001)  ploadbar=  1.01125452568265E+05
 cg2d: Sum(rhs),rhsMax =  -5.05259347059688E+01  1.38379638648715E+00
(PID.TID 0000.0001)  ploadbar=  1.01126535772720E+05
 cg2d: Sum(rhs),rhsMax =  -5.05200741856167E+01  1.38438203183847E+00
(PID.TID 0000.0001)  ploadbar=  1.01127618977175E+05
 cg2d: Sum(rhs),rhsMax =  -5.05147345088011E+01  1.38496017385292E+00
(PID.TID 0000.0001)  ploadbar=  1.01128702181630E+05
 cg2d: Sum(rhs),rhsMax =  -5.05096068523196E+01  1.38547484834498E+00
(PID.TID 0000.0001)  ploadbar=  1.01128641255743E+05
 cg2d: Sum(rhs),rhsMax =  -5.04985054796317E+01  1.38609263801249E+00
(PID.TID 0000.0001)  ploadbar=  1.01128580329855E+05
 cg2d: Sum(rhs),rhsMax =  -5.04905064921322E+01  1.38656120650095E+00
(PID.TID 0000.0001)  ploadbar=  1.01128519403968E+05
 cg2d: Sum(rhs),rhsMax =  -5.04866867182481E+01  1.38684614895242E+00
(PID.TID 0000.0001)  ploadbar=  1.01128458478080E+05
 cg2d: Sum(rhs),rhsMax =  -5.04868308480818E+01  1.38694796387180E+00
(PID.TID 0000.0001)  ploadbar=  1.01128397552193E+05
 cg2d: Sum(rhs),rhsMax =  -5.04921978491391E+01  1.38682689723686E+00
(PID.TID 0000.0001)  ploadbar=  1.01128336626305E+05
 cg2d: Sum(rhs),rhsMax =  -5.05177195939480E+01  1.38625017265320E+00
(PID.TID 0000.0001)  ploadbar=  1.01127092995537E+05
 cg2d: Sum(rhs),rhsMax =  -5.05556647740578E+01  1.38542398611070E+00
(PID.TID 0000.0001)  ploadbar=  1.01125849364770E+05
 cg2d: Sum(rhs),rhsMax =  -5.06032717560263E+01  1.38442238726696E+00
(PID.TID 0000.0001)  ploadbar=  1.01124605734001E+05
 cg2d: Sum(rhs),rhsMax =  -5.06627371636126E+01  1.38318330902264E+00
(PID.TID 0000.0001)  ploadbar=  1.01123362103233E+05
 cg2d: Sum(rhs),rhsMax =  -5.07347006644627E+01  1.38168761536777E+00
(PID.TID 0000.0001)  ploadbar=  1.01122118472466E+05
 cg2d: Sum(rhs),rhsMax =  -5.08179554486819E+01  1.37996422233764E+00
(PID.TID 0000.0001)  ploadbar=  1.01120874841698E+05
 cg2d: Sum(rhs),rhsMax =  -5.09060273867629E+01  1.37802807676343E+00
(PID.TID 0000.0001)  ploadbar=  1.01120529945993E+05
 cg2d: Sum(rhs),rhsMax =  -5.09999060388828E+01  1.37584782774596E+00
(PID.TID 0000.0001)  ploadbar=  1.01120185050288E+05
 cg2d: Sum(rhs),rhsMax =  -5.10934982213627E+01  1.37358436012810E+00
(PID.TID 0000.0001)  ploadbar=  1.01119840154583E+05
 cg2d: Sum(rhs),rhsMax =  -5.11862981016459E+01  1.37124782977855E+00
(PID.TID 0000.0001)  ploadbar=  1.01119495258878E+05
 cg2d: Sum(rhs),rhsMax =  -5.12797335174244E+01  1.36879592118371E+00
(PID.TID 0000.0001)  ploadbar=  1.01119150363174E+05
 cg2d: Sum(rhs),rhsMax =  -5.13749062135955E+01  1.36619753815015E+00
(PID.TID 0000.0001)  ploadbar=  1.01118805467469E+05
 cg2d: Sum(rhs),rhsMax =  -5.14665287922144E+01  1.36373195769585E+00
(PID.TID 0000.0001)  ploadbar=  1.01119754393708E+05
 cg2d: Sum(rhs),rhsMax =  -5.15636138996724E+01  1.36115576064775E+00
(PID.TID 0000.0001)  ploadbar=  1.01120703319948E+05
 cg2d: Sum(rhs),rhsMax =  -5.16619476211843E+01  1.35857737547903E+00
(PID.TID 0000.0001)  ploadbar=  1.01121652246188E+05
 cg2d: Sum(rhs),rhsMax =  -5.17573522220559E+01  1.35610080670813E+00
(PID.TID 0000.0001)  ploadbar=  1.01122601172427E+05
 cg2d: Sum(rhs),rhsMax =  -5.18478606227804E+01  1.35377250264517E+00
(PID.TID 0000.0001)  ploadbar=  1.01123550098667E+05
 cg2d: Sum(rhs),rhsMax =  -5.19323404025862E+01  1.35161683227598E+00
(PID.TID 0000.0001)  ploadbar=  1.01124499024906E+05
 cg2d: Sum(rhs),rhsMax =  -5.20088902804526E+01  1.34964688523427E+00
(PID.TID 0000.0001)  ploadbar=  1.01124334447983E+05
 cg2d: Sum(rhs),rhsMax =  -5.20779111511199E+01  1.34785018932542E+00
(PID.TID 0000.0001)  ploadbar=  1.01124169871059E+05
 cg2d: Sum(rhs),rhsMax =  -5.21403078357368E+01  1.34619720686298E+00
(PID.TID 0000.0001)  ploadbar=  1.01124005294136E+05
 cg2d: Sum(rhs),rhsMax =  -5.21950234696595E+01  1.34471139515256E+00
(PID.TID 0000.0001)  ploadbar=  1.01123840717212E+05
 cg2d: Sum(rhs),rhsMax =  -5.22415601577077E+01  1.34339930185722E+00
(PID.TID 0000.0001)  ploadbar=  1.01123676140289E+05
 cg2d: Sum(rhs),rhsMax =  -5.22800454979726E+01  1.34225402033110E+00
(PID.TID 0000.0001)  ploadbar=  1.01123511563365E+05
 cg2d: Sum(rhs),rhsMax =  -5.23127160676001E+01  1.34132972208560E+00
(PID.TID 0000.0001)  ploadbar=  1.01123905361710E+05
 cg2d: Sum(rhs),rhsMax =  -5.23392784745320E+01  1.34063064249710E+00
(PID.TID 0000.0001)  ploadbar=  1.01124299160055E+05
 cg2d: Sum(rhs),rhsMax =  -5.23592789207446E+01  1.34016571269774E+00
(PID.TID 0000.0001)  ploadbar=  1.01124692958400E+05
 cg2d: Sum(rhs),rhsMax =  -5.23723796378628E+01  1.33994030806706E+00
(PID.TID 0000.0001)  ploadbar=  1.01125086756745E+05
 cg2d: Sum(rhs),rhsMax =  -5.23782817348663E+01  1.33995975072313E+00
(PID.TID 0000.0001)  ploadbar=  1.01125480555089E+05
 cg2d: Sum(rhs),rhsMax =  -5.23770212102348E+01  1.34021452449770E+00
(PID.TID 0000.0001)  ploadbar=  1.01125874353434E+05
 cg2d: Sum(rhs),rhsMax =  -5.23668105272495E+01  1.34062836411124E+00
(PID.TID 0000.0001)  ploadbar=  1.01125293874217E+05
 cg2d: Sum(rhs),rhsMax =  -5.23434521634575E+01  1.34130956550591E+00
(PID.TID 0000.0001)  ploadbar=  1.01124713395000E+05
 cg2d: Sum(rhs),rhsMax =  -5.23084014841613E+01  1.34221673051218E+00
(PID.TID 0000.0001)  ploadbar=  1.01124132915782E+05
 cg2d: Sum(rhs),rhsMax =  -5.22641882234674E+01  1.34328313066270E+00
(PID.TID 0000.0001)  ploadbar=  1.01123552436564E+05
 cg2d: Sum(rhs),rhsMax =  -5.22100334969369E+01  1.34452852788846E+00
(PID.TID 0000.0001)  ploadbar=  1.01122971957347E+05
 cg2d: Sum(rhs),rhsMax =  -5.21451767695482E+01  1.34597309695005E+00
(PID.TID 0000.0001)  ploadbar=  1.01122391478130E+05
 cg2d: Sum(rhs),rhsMax =  -5.20788754860163E+01  1.34749237427513E+00
(PID.TID 0000.0001)  ploadbar=  1.01121739328463E+05
 cg2d: Sum(rhs),rhsMax =  -5.20060415210792E+01  1.34920674785666E+00
(PID.TID 0000.0001)  ploadbar=  1.01121087178796E+05
 cg2d: Sum(rhs),rhsMax =  -5.19296572836834E+01  1.35103402069477E+00
(PID.TID 0000.0001)  ploadbar=  1.01120435029129E+05
 cg2d: Sum(rhs),rhsMax =  -5.18506892959803E+01  1.35294585400648E+00
(PID.TID 0000.0001)  ploadbar=  1.01119782879462E+05
 cg2d: Sum(rhs),rhsMax =  -5.17690187467547E+01  1.35494511837068E+00
(PID.TID 0000.0001)  ploadbar=  1.01119130729795E+05
 cg2d: Sum(rhs),rhsMax =  -5.16846715548976E+01  1.35703006710530E+00
(PID.TID 0000.0001)  ploadbar=  1.01118478580128E+05
 cg2d: Sum(rhs),rhsMax =  -5.16056471686270E+01  1.35895544675547E+00
(PID.TID 0000.0001)  ploadbar=  1.01118435262920E+05
 cg2d: Sum(rhs),rhsMax =  -5.15257011511575E+01  1.36088190175156E+00
(PID.TID 0000.0001)  ploadbar=  1.01118391945713E+05
 cg2d: Sum(rhs),rhsMax =  -5.14520289041318E+01  1.36262114615807E+00
(PID.TID 0000.0001)  ploadbar=  1.01118348628506E+05
 cg2d: Sum(rhs),rhsMax =  -5.13831229580077E+01  1.36420941944412E+00
(PID.TID 0000.0001)  ploadbar=  1.01118305311299E+05
 cg2d: Sum(rhs),rhsMax =  -5.13134903546878E+01  1.36578882168096E+00
(PID.TID 0000.0001)  ploadbar=  1.01118261994092E+05
 cg2d: Sum(rhs),rhsMax =  -5.12460484868883E+01  1.36727859282631E+00
(PID.TID 0000.0001)  ploadbar=  1.01118218676884E+05
 cg2d: Sum(rhs),rhsMax =  -5.11891428999313E+01  1.36856646360200E+00
(PID.TID 0000.0001)  ploadbar=  1.01118335184130E+05
 cg2d: Sum(rhs),rhsMax =  -5.11424396705534E+01  1.36965325086117E+00
(PID.TID 0000.0001)  ploadbar=  1.01118451691375E+05
 cg2d: Sum(rhs),rhsMax =  -5.11079692851089E+01  1.37048044067587E+00
(PID.TID 0000.0001)  ploadbar=  1.01118568198621E+05
 cg2d: Sum(rhs),rhsMax =  -5.10847478768261E+01  1.37106823417511E+00
(PID.TID 0000.0001)  ploadbar=  1.01118684705867E+05
 cg2d: Sum(rhs),rhsMax =  -5.10731963775133E+01  1.37139862013608E+00
(PID.TID 0000.0001)  ploadbar=  1.01118801213112E+05
 cg2d: Sum(rhs),rhsMax =  -5.10844895845049E+01  1.37116705187650E+00
(PID.TID 0000.0001)  ploadbar=  1.01118917720358E+05
 cg2d: Sum(rhs),rhsMax =  -5.10999311029255E+01  1.37080370977622E+00
(PID.TID 0000.0001)  ploadbar=  1.01117617047691E+05
 cg2d: Sum(rhs),rhsMax =  -5.11219219707170E+01  1.37024098280352E+00
(PID.TID 0000.0001)  ploadbar=  1.01116316375024E+05
 cg2d: Sum(rhs),rhsMax =  -5.11515780479382E+01  1.36944555594688E+00
(PID.TID 0000.0001)  ploadbar=  1.01115015702357E+05
 cg2d: Sum(rhs),rhsMax =  -5.11875499302586E+01  1.36845377102095E+00
(PID.TID 0000.0001)  ploadbar=  1.01113715029690E+05
 cg2d: Sum(rhs),rhsMax =  -5.12288139565173E+01  1.36729568933384E+00
(PID.TID 0000.0001)  ploadbar=  1.01112414357023E+05
 cg2d: Sum(rhs),rhsMax =  -5.12736008878303E+01  1.36602239587890E+00
(PID.TID 0000.0001)  ploadbar=  1.01111113684355E+05
 cg2d: Sum(rhs),rhsMax =  -5.13059500259606E+01  1.36511160462126E+00
(PID.TID 0000.0001)  ploadbar=  1.01111610353229E+05
 cg2d: Sum(rhs),rhsMax =  -5.13431272166615E+01  1.36408834239689E+00
(PID.TID 0000.0001)  ploadbar=  1.01112107022104E+05
 cg2d: Sum(rhs),rhsMax =  -5.13780568510344E+01  1.36313934297244E+00
(PID.TID 0000.0001)  ploadbar=  1.01112603690978E+05
 cg2d: Sum(rhs),rhsMax =  -5.14130246256355E+01  1.36219781885559E+00
(PID.TID 0000.0001)  ploadbar=  1.01113100359852E+05
 cg2d: Sum(rhs),rhsMax =  -5.14505419509551E+01  1.36119454355516E+00
(PID.TID 0000.0001)  ploadbar=  1.01113597028726E+05
 cg2d: Sum(rhs),rhsMax =  -5.14917372478347E+01  1.36010297866713E+00
(PID.TID 0000.0001)  ploadbar=  1.01114093697600E+05
 cg2d: Sum(rhs),rhsMax =  -5.15306301682967E+01  1.35904181384130E+00
(PID.TID 0000.0001)  ploadbar=  1.01113462104740E+05
 cg2d: Sum(rhs),rhsMax =  -5.15726939652113E+01  1.35786404380111E+00
(PID.TID 0000.0001)  ploadbar=  1.01112830511879E+05
 cg2d: Sum(rhs),rhsMax =  -5.16150721986403E+01  1.35664429981252E+00
(PID.TID 0000.0001)  ploadbar=  1.01112198919019E+05
 cg2d: Sum(rhs),rhsMax =  -5.16564233349091E+01  1.35541806654317E+00
(PID.TID 0000.0001)  ploadbar=  1.01111567326158E+05
 cg2d: Sum(rhs),rhsMax =  -5.16967791924921E+01  1.35418407975945E+00
(PID.TID 0000.0001)  ploadbar=  1.01110935733298E+05
 cg2d: Sum(rhs),rhsMax =  -5.17359218557365E+01  1.35293946821569E+00
(PID.TID 0000.0001)  ploadbar=  1.01110304140438E+05
 cg2d: Sum(rhs),rhsMax =  -5.17947949431685E+01  1.35126243471948E+00
(PID.TID 0000.0001)  ploadbar=  1.01108969515746E+05
 cg2d: Sum(rhs),rhsMax =  -5.18586349600349E+01  1.34953303923182E+00
(PID.TID 0000.0001)  ploadbar=  1.01107634891053E+05
 cg2d: Sum(rhs),rhsMax =  -5.19243703766508E+01  1.34782637613646E+00
(PID.TID 0000.0001)  ploadbar=  1.01106300266361E+05
 cg2d: Sum(rhs),rhsMax =  -5.19921704671655E+01  1.34613069577443E+00
(PID.TID 0000.0001)  ploadbar=  1.01104965641669E+05
 cg2d: Sum(rhs),rhsMax =  -5.20629033878980E+01  1.34441998298350E+00
(PID.TID 0000.0001)  ploadbar=  1.01103631016977E+05
 cg2d: Sum(rhs),rhsMax =  -5.21366628771344E+01  1.34268363029202E+00
(PID.TID 0000.0001)  ploadbar=  1.01102296392285E+05
 cg2d: Sum(rhs),rhsMax =  -5.21994413347912E+01  1.34123722802380E+00
(PID.TID 0000.0001)  ploadbar=  1.01101055666235E+05
 cg2d: Sum(rhs),rhsMax =  -5.22564057372485E+01  1.33994098523436E+00
(PID.TID 0000.0001)  ploadbar=  1.01099814940186E+05
 cg2d: Sum(rhs),rhsMax =  -5.22994025631383E+01  1.33899986837317E+00
(PID.TID 0000.0001)  ploadbar=  1.01098574214137E+05
 cg2d: Sum(rhs),rhsMax =  -5.23288640790564E+01  1.33840370707620E+00
(PID.TID 0000.0001)  ploadbar=  1.01097333488087E+05
 cg2d: Sum(rhs),rhsMax =  -5.23512647265803E+01  1.33799137105517E+00
(PID.TID 0000.0001)  ploadbar=  1.01096092762038E+05
 cg2d: Sum(rhs),rhsMax =  -5.23763919808838E+01  1.33751104420458E+00
(PID.TID 0000.0001)  ploadbar=  1.01094852035988E+05
 cg2d: Sum(rhs),rhsMax =  -5.23928077634698E+01  1.33730692333831E+00
(PID.TID 0000.0001)  ploadbar=  1.01094569466423E+05
 cg2d: Sum(rhs),rhsMax =  -5.24105870961774E+01  1.33710877642204E+00
(PID.TID 0000.0001)  ploadbar=  1.01094286896857E+05
 cg2d: Sum(rhs),rhsMax =  -5.24385019797582E+01  1.33668923702539E+00
(PID.TID 0000.0001)  ploadbar=  1.01094004327291E+05
 cg2d: Sum(rhs),rhsMax =  -5.24748101219353E+01  1.33609070882182E+00
(PID.TID 0000.0001)  ploadbar=  1.01093721757726E+05
 cg2d: Sum(rhs),rhsMax =  -5.25213450466125E+01  1.33526589537999E+00
(PID.TID 0000.0001)  ploadbar=  1.01093439188160E+05
 cg2d: Sum(rhs),rhsMax =  -5.25723486968494E+01  1.33435927825543E+00
(PID.TID 0000.0001)  ploadbar=  1.01093156618594E+05
 cg2d: Sum(rhs),rhsMax =  -5.26391012589350E+01  1.33303095743712E+00
(PID.TID 0000.0001)  ploadbar=  1.01092282058910E+05
 cg2d: Sum(rhs),rhsMax =  -5.27059717536063E+01  1.33167616598163E+00
(PID.TID 0000.0001)  ploadbar=  1.01091407499225E+05
 cg2d: Sum(rhs),rhsMax =  -5.27759488620984E+01  1.33021999353943E+00
(PID.TID 0000.0001)  ploadbar=  1.01090532939541E+05
 cg2d: Sum(rhs),rhsMax =  -5.28453110291875E+01  1.32875538597749E+00
(PID.TID 0000.0001)  ploadbar=  1.01089658379856E+05
 cg2d: Sum(rhs),rhsMax =  -5.29112469377134E+01  1.32734964176126E+00
(PID.TID 0000.0001)  ploadbar=  1.01088783820172E+05
 cg2d: Sum(rhs),rhsMax =  -5.29726329427201E+01  1.32602634676806E+00
(PID.TID 0000.0001)  ploadbar=  1.01087909260487E+05
 cg2d: Sum(rhs),rhsMax =  -5.30536587105183E+01  1.32428699587487E+00
(PID.TID 0000.0001)  ploadbar=  1.01087889430784E+05
 cg2d: Sum(rhs),rhsMax =  -5.31461140425860E+01  1.32233437057087E+00
(PID.TID 0000.0001)  ploadbar=  1.01087869601081E+05
 cg2d: Sum(rhs),rhsMax =  -5.32430869628577E+01  1.32033683180301E+00
(PID.TID 0000.0001)  ploadbar=  1.01087849771378E+05
 cg2d: Sum(rhs),rhsMax =  -5.33478150324099E+01  1.31820961137003E+00
(PID.TID 0000.0001)  ploadbar=  1.01087829941675E+05
 cg2d: Sum(rhs),rhsMax =  -5.34603960658823E+01  1.31594892651351E+00
(PID.TID 0000.0001)  ploadbar=  1.01087810111972E+05
 cg2d: Sum(rhs),rhsMax =  -5.35793527877932E+01  1.31359096151343E+00
(PID.TID 0000.0001)  ploadbar=  1.01087790282268E+05
 cg2d: Sum(rhs),rhsMax =  -5.36961035218135E+01  1.31127177084048E+00
(PID.TID 0000.0001)  ploadbar=  1.01087577088551E+05
 cg2d: Sum(rhs),rhsMax =  -5.38078346027671E+01  1.30905827321572E+00
(PID.TID 0000.0001)  ploadbar=  1.01087363894833E+05
 cg2d: Sum(rhs),rhsMax =  -5.39149561391339E+01  1.30693987765629E+00
(PID.TID 0000.0001)  ploadbar=  1.01087150701116E+05
 cg2d: Sum(rhs),rhsMax =  -5.40181560369700E+01  1.30489763959920E+00
(PID.TID 0000.0001)  ploadbar=  1.01086937507398E+05
 cg2d: Sum(rhs),rhsMax =  -5.41162041185043E+01  1.30296299690394E+00
(PID.TID 0000.0001)  ploadbar=  1.01086724313681E+05
 cg2d: Sum(rhs),rhsMax =  -5.42086253376838E+01  1.30114774787347E+00
(PID.TID 0000.0001)  ploadbar=  1.01086511119963E+05
 cg2d: Sum(rhs),rhsMax =  -5.42949597968421E+01  1.29950019174126E+00
(PID.TID 0000.0001)  ploadbar=  1.01086662358759E+05
 cg2d: Sum(rhs),rhsMax =  -5.43732447928562E+01  1.29805403739963E+00
(PID.TID 0000.0001)  ploadbar=  1.01086813597554E+05
 cg2d: Sum(rhs),rhsMax =  -5.44469239787979E+01  1.29672394693228E+00
(PID.TID 0000.0001)  ploadbar=  1.01086964836350E+05
 cg2d: Sum(rhs),rhsMax =  -5.45157840221876E+01  1.29550891140702E+00
(PID.TID 0000.0001)  ploadbar=  1.01087116075145E+05
 cg2d: Sum(rhs),rhsMax =  -5.45775105731248E+01  1.29445820927598E+00
(PID.TID 0000.0001)  ploadbar=  1.01087267313941E+05
 cg2d: Sum(rhs),rhsMax =  -5.46317987141933E+01  1.29357480452090E+00
(PID.TID 0000.0001)  ploadbar=  1.01087418552736E+05
 cg2d: Sum(rhs),rhsMax =  -5.46683276460002E+01  1.29304561536003E+00
(PID.TID 0000.0001)  ploadbar=  1.01086925843731E+05
 cg2d: Sum(rhs),rhsMax =  -5.46881723546770E+01  1.29284301864332E+00
(PID.TID 0000.0001)  ploadbar=  1.01086433134726E+05
 cg2d: Sum(rhs),rhsMax =  -5.46980472250205E+01  1.29281223917172E+00
(PID.TID 0000.0001)  ploadbar=  1.01085940425721E+05
 cg2d: Sum(rhs),rhsMax =  -5.46978894773236E+01  1.29295359319167E+00
(PID.TID 0000.0001)  ploadbar=  1.01085447716715E+05
 cg2d: Sum(rhs),rhsMax =  -5.46862430361627E+01  1.29330090518095E+00
(PID.TID 0000.0001)  ploadbar=  1.01084955007710E+05
 cg2d: Sum(rhs),rhsMax =  -5.46602772228484E+01  1.29391851031926E+00
(PID.TID 0000.0001)  ploadbar=  1.01084462298705E+05
 cg2d: Sum(rhs),rhsMax =  -5.46384998102407E+01  1.29450695928464E+00
(PID.TID 0000.0001)  ploadbar=  1.01085652597166E+05
 cg2d: Sum(rhs),rhsMax =  -5.46232012907172E+01  1.29500650153227E+00
(PID.TID 0000.0001)  ploadbar=  1.01086842895626E+05
 cg2d: Sum(rhs),rhsMax =  -5.46184561577939E+01  1.29531554215358E+00
(PID.TID 0000.0001)  ploadbar=  1.01088033194087E+05
 cg2d: Sum(rhs),rhsMax =  -5.46236591703000E+01  1.29544462532737E+00
(PID.TID 0000.0001)  ploadbar=  1.01089223492547E+05
 cg2d: Sum(rhs),rhsMax =  -5.46390904192884E+01  1.29538306441441E+00
(PID.TID 0000.0001)  ploadbar=  1.01090413791008E+05
 cg2d: Sum(rhs),rhsMax =  -5.46643135767013E+01  1.29514060600326E+00
(PID.TID 0000.0001)  ploadbar=  1.01091604089469E+05
 cg2d: Sum(rhs),rhsMax =  -5.46939925552011E+01  1.29476493939637E+00
(PID.TID 0000.0001)  ploadbar=  1.01092146991045E+05
 cg2d: Sum(rhs),rhsMax =  -5.47222889052252E+01  1.29439637782004E+00
(PID.TID 0000.0001)  ploadbar=  1.01092689892622E+05
 cg2d: Sum(rhs),rhsMax =  -5.47479598267239E+01  1.29406836056149E+00
(PID.TID 0000.0001)  ploadbar=  1.01093232794198E+05
 cg2d: Sum(rhs),rhsMax =  -5.47692180735133E+01  1.29382609842422E+00
(PID.TID 0000.0001)  ploadbar=  1.01093775695775E+05
 cg2d: Sum(rhs),rhsMax =  -5.47878224047179E+01  1.29362577195618E+00
(PID.TID 0000.0001)  ploadbar=  1.01094318597351E+05
 cg2d: Sum(rhs),rhsMax =  -5.48065994750245E+01  1.29340318769631E+00
(PID.TID 0000.0001)  ploadbar=  1.01094861498928E+05
 cg2d: Sum(rhs),rhsMax =  -5.48316528785952E+01  1.29304455380640E+00
(PID.TID 0000.0001)  ploadbar=  1.01095396221748E+05
 cg2d: Sum(rhs),rhsMax =  -5.48674159323724E+01  1.29243825337625E+00
(PID.TID 0000.0001)  ploadbar=  1.01095930944568E+05
 cg2d: Sum(rhs),rhsMax =  -5.49101111266527E+01  1.29167108597971E+00
(PID.TID 0000.0001)  ploadbar=  1.01096465667388E+05
 cg2d: Sum(rhs),rhsMax =  -5.49588295541948E+01  1.29075972418813E+00
(PID.TID 0000.0001)  ploadbar=  1.01097000390208E+05
 cg2d: Sum(rhs),rhsMax =  -5.50169558779708E+01  1.28962188891172E+00
(PID.TID 0000.0001)  ploadbar=  1.01097535113028E+05
 cg2d: Sum(rhs),rhsMax =  -5.50844582550572E+01  1.28825749925560E+00
(PID.TID 0000.0001)  ploadbar=  1.01098069835848E+05
 cg2d: Sum(rhs),rhsMax =  -5.51450274395611E+01  1.28698936400885E+00
(PID.TID 0000.0001)  ploadbar=  1.01098097603229E+05
 cg2d: Sum(rhs),rhsMax =  -5.52070413057066E+01  1.28561916520707E+00
(PID.TID 0000.0001)  ploadbar=  1.01098125370610E+05
 cg2d: Sum(rhs),rhsMax =  -5.52692085468166E+01  1.28417952604895E+00
(PID.TID 0000.0001)  ploadbar=  1.01098153137991E+05
 cg2d: Sum(rhs),rhsMax =  -5.53319030080970E+01  1.28266471706467E+00
(PID.TID 0000.0001)  ploadbar=  1.01098180905372E+05
 cg2d: Sum(rhs),rhsMax =  -5.53946640638162E+01  1.28108477377391E+00
(PID.TID 0000.0001)  ploadbar=  1.01098208672753E+05
 cg2d: Sum(rhs),rhsMax =  -5.54569051476363E+01  1.27945116969061E+00
(PID.TID 0000.0001)  ploadbar=  1.01098236440134E+05
 cg2d: Sum(rhs),rhsMax =  -5.55121186173377E+01  1.27804971058005E+00
(PID.TID 0000.0001)  ploadbar=  1.01098459720794E+05
 cg2d: Sum(rhs),rhsMax =  -5.55687582833077E+01  1.27668066336980E+00
(PID.TID 0000.0001)  ploadbar=  1.01098683001455E+05
 cg2d: Sum(rhs),rhsMax =  -5.56286414440578E+01  1.27529623355854E+00
(PID.TID 0000.0001)  ploadbar=  1.01098906282115E+05
 cg2d: Sum(rhs),rhsMax =  -5.56911966218641E+01  1.27390309345136E+00
(PID.TID 0000.0001)  ploadbar=  1.01099129562775E+05
 cg2d: Sum(rhs),rhsMax =  -5.57556138791081E+01  1.27251753106663E+00
(PID.TID 0000.0001)  ploadbar=  1.01099352843436E+05
 cg2d: Sum(rhs),rhsMax =  -5.58208643106869E+01  1.27115901867751E+00
(PID.TID 0000.0001)  ploadbar=  1.01099576124096E+05
 cg2d: Sum(rhs),rhsMax =  -5.58934776045803E+01  1.26963412084630E+00
(PID.TID 0000.0001)  ploadbar=  1.01100041516929E+05
 cg2d: Sum(rhs),rhsMax =  -5.59668794133522E+01  1.26809470523222E+00
(PID.TID 0000.0001)  ploadbar=  1.01100506909762E+05
 cg2d: Sum(rhs),rhsMax =  -5.60405665453661E+01  1.26655391348964E+00
(PID.TID 0000.0001)  ploadbar=  1.01100972302595E+05
 cg2d: Sum(rhs),rhsMax =  -5.61159120962025E+01  1.26498654951450E+00
(PID.TID 0000.0001)  ploadbar=  1.01101437695428E+05
 cg2d: Sum(rhs),rhsMax =  -5.61931608029024E+01  1.26338934058696E+00
(PID.TID 0000.0001)  ploadbar=  1.01101903088261E+05
 cg2d: Sum(rhs),rhsMax =  -5.62722589953638E+01  1.26176415762674E+00
(PID.TID 0000.0001)  ploadbar=  1.01102368481094E+05
 cg2d: Sum(rhs),rhsMax =  -5.63597272213479E+01  1.25999526556022E+00
(PID.TID 0000.0001)  ploadbar=  1.01104177464967E+05
 cg2d: Sum(rhs),rhsMax =  -5.64533226620432E+01  1.25812782273986E+00
(PID.TID 0000.0001)  ploadbar=  1.01105986448840E+05
 cg2d: Sum(rhs),rhsMax =  -5.65479917130454E+01  1.25627176074005E+00
(PID.TID 0000.0001)  ploadbar=  1.01107795432712E+05
 cg2d: Sum(rhs),rhsMax =  -5.66439713496658E+01  1.25441971216093E+00
(PID.TID 0000.0001)  ploadbar=  1.01109604416585E+05
 cg2d: Sum(rhs),rhsMax =  -5.67422264868319E+01  1.25254771448318E+00
(PID.TID 0000.0001)  ploadbar=  1.01111413400458E+05
 cg2d: Sum(rhs),rhsMax =  -5.68429145250195E+01  1.25064898851342E+00
(PID.TID 0000.0001)  ploadbar=  1.01113222384331E+05
 cg2d: Sum(rhs),rhsMax =  -5.69522935647720E+01  1.24854073966162E+00
(PID.TID 0000.0001)  ploadbar=  1.01113846226508E+05
 cg2d: Sum(rhs),rhsMax =  -5.70641187825817E+01  1.24636258443598E+00
(PID.TID 0000.0001)  ploadbar=  1.01114470068685E+05
 cg2d: Sum(rhs),rhsMax =  -5.71766142148057E+01  1.24415549085352E+00
(PID.TID 0000.0001)  ploadbar=  1.01115093910862E+05
 cg2d: Sum(rhs),rhsMax =  -5.72907223638003E+01  1.24189766989020E+00
(PID.TID 0000.0001)  ploadbar=  1.01115717753039E+05
 cg2d: Sum(rhs),rhsMax =  -5.74070570479060E+01  1.23957458889851E+00
(PID.TID 0000.0001)  ploadbar=  1.01116341595216E+05
 cg2d: Sum(rhs),rhsMax =  -5.75259283184075E+01  1.23717981608592E+00
(PID.TID 0000.0001)  ploadbar=  1.01116965437393E+05
 cg2d: Sum(rhs),rhsMax =  -5.76399163656104E+01  1.23494350444570E+00
(PID.TID 0000.0001)  ploadbar=  1.01116356365828E+05
 cg2d: Sum(rhs),rhsMax =  -5.77587659428933E+01  1.23265142037914E+00
(PID.TID 0000.0001)  ploadbar=  1.01115747294262E+05
 cg2d: Sum(rhs),rhsMax =  -5.78811067061463E+01  1.23032679047971E+00
(PID.TID 0000.0001)  ploadbar=  1.01115138222696E+05
 cg2d: Sum(rhs),rhsMax =  -5.80073262184622E+01  1.22795611346868E+00
(PID.TID 0000.0001)  ploadbar=  1.01114529151131E+05
 cg2d: Sum(rhs),rhsMax =  -5.81373568966569E+01  1.22553842205133E+00
(PID.TID 0000.0001)  ploadbar=  1.01113920079565E+05
 cg2d: Sum(rhs),rhsMax =  -5.82706004101136E+01  1.22308499090338E+00
(PID.TID 0000.0001)  ploadbar=  1.01113311008000E+05
 cg2d: Sum(rhs),rhsMax =  -5.84095807650685E+01  1.22052591450947E+00
(PID.TID 0000.0001)  ploadbar=  1.01113924325722E+05
 cg2d: Sum(rhs),rhsMax =  -5.85501582130093E+01  1.21794754264408E+00
(PID.TID 0000.0001)  ploadbar=  1.01114537643445E+05
 cg2d: Sum(rhs),rhsMax =  -5.86919887080691E+01  1.21535659637684E+00
(PID.TID 0000.0001)  ploadbar=  1.01115150961167E+05
 cg2d: Sum(rhs),rhsMax =  -5.88354479819841E+01  1.21274380668433E+00
(PID.TID 0000.0001)  ploadbar=  1.01115764278890E+05
 cg2d: Sum(rhs),rhsMax =  -5.89799598129212E+01  1.21011985754361E+00
(PID.TID 0000.0001)  ploadbar=  1.01116377596613E+05
 cg2d: Sum(rhs),rhsMax =  -5.91248525869520E+01  1.20749755198080E+00
(PID.TID 0000.0001)  ploadbar=  1.01116990914335E+05
 cg2d: Sum(rhs),rhsMax =  -5.92685810790556E+01  1.20490027355365E+00
(PID.TID 0000.0001)  ploadbar=  1.01118610553216E+05
 cg2d: Sum(rhs),rhsMax =  -5.94106891182449E+01  1.20232376090602E+00
(PID.TID 0000.0001)  ploadbar=  1.01120230192097E+05
 cg2d: Sum(rhs),rhsMax =  -5.95487757552364E+01  1.19981554928215E+00
(PID.TID 0000.0001)  ploadbar=  1.01121849830978E+05
 cg2d: Sum(rhs),rhsMax =  -5.96841011605939E+01  1.19734466648705E+00
(PID.TID 0000.0001)  ploadbar=  1.01123469469859E+05
 cg2d: Sum(rhs),rhsMax =  -5.98169776321680E+01  1.19490262338827E+00
(PID.TID 0000.0001)  ploadbar=  1.01125089108740E+05
 cg2d: Sum(rhs),rhsMax =  -5.99497366714326E+01  1.19244063659200E+00
(PID.TID 0000.0001)  ploadbar=  1.01126708747621E+05
 cg2d: Sum(rhs),rhsMax =  -6.00777902040420E+01  1.19004294846285E+00
(PID.TID 0000.0001)  ploadbar=  1.01126895798885E+05
 cg2d: Sum(rhs),rhsMax =  -6.02019533532038E+01  1.18769517750400E+00
(PID.TID 0000.0001)  ploadbar=  1.01127082850150E+05
 cg2d: Sum(rhs),rhsMax =  -6.03255537424010E+01  1.18533300373996E+00
(PID.TID 0000.0001)  ploadbar=  1.01127269901414E+05
 cg2d: Sum(rhs),rhsMax =  -6.04468847225759E+01  1.18298638839325E+00
(PID.TID 0000.0001)  ploadbar=  1.01127456952678E+05
 cg2d: Sum(rhs),rhsMax =  -6.05661771398038E+01  1.18065109224728E+00
(PID.TID 0000.0001)  ploadbar=  1.01127644003943E+05
 cg2d: Sum(rhs),rhsMax =  -6.06844459440436E+01  1.17830485684613E+00
(PID.TID 0000.0001)  ploadbar=  1.01127831055207E+05
 cg2d: Sum(rhs),rhsMax =  -6.08048738351002E+01  1.17598903674192E+00
(PID.TID 0000.0001)  ploadbar=  1.01128326962921E+05
 cg2d: Sum(rhs),rhsMax =  -6.09283069551878E+01  1.17368079761605E+00
(PID.TID 0000.0001)  ploadbar=  1.01128822870634E+05
 cg2d: Sum(rhs),rhsMax =  -6.10538717220291E+01  1.17139066205074E+00
(PID.TID 0000.0001)  ploadbar=  1.01129318778348E+05
 cg2d: Sum(rhs),rhsMax =  -6.11810544081061E+01  1.16912385807133E+00
(PID.TID 0000.0001)  ploadbar=  1.01129814686061E+05
 cg2d: Sum(rhs),rhsMax =  -6.13096898665380E+01  1.16688668485857E+00
(PID.TID 0000.0001)  ploadbar=  1.01130310593775E+05
 cg2d: Sum(rhs),rhsMax =  -6.14395188058277E+01  1.16468369336076E+00
(PID.TID 0000.0001)  ploadbar=  1.01130806501488E+05
 cg2d: Sum(rhs),rhsMax =  -6.15676916646144E+01  1.16255764547339E+00
(PID.TID 0000.0001)  ploadbar=  1.01130469125908E+05
 cg2d: Sum(rhs),rhsMax =  -6.16928364419241E+01  1.16053213933359E+00
(PID.TID 0000.0001)  ploadbar=  1.01130131750328E+05
 cg2d: Sum(rhs),rhsMax =  -6.18165835406316E+01  1.15857764525752E+00
(PID.TID 0000.0001)  ploadbar=  1.01129794374747E+05
 cg2d: Sum(rhs),rhsMax =  -6.19384443323655E+01  1.15669907775296E+00
(PID.TID 0000.0001)  ploadbar=  1.01129456999167E+05
 cg2d: Sum(rhs),rhsMax =  -6.20586993609548E+01  1.15488531966900E+00
(PID.TID 0000.0001)  ploadbar=  1.01129119623587E+05
 cg2d: Sum(rhs),rhsMax =  -6.21778637164303E+01  1.15312513135336E+00
(PID.TID 0000.0001)  ploadbar=  1.01128782248007E+05
 cg2d: Sum(rhs),rhsMax =  -6.22985769874367E+01  1.15130668892389E+00
(PID.TID 0000.0001)  ploadbar=  1.01128775944982E+05
 cg2d: Sum(rhs),rhsMax =  -6.24170492338328E+01  1.14949268188339E+00
(PID.TID 0000.0001)  ploadbar=  1.01128769641957E+05
 cg2d: Sum(rhs),rhsMax =  -6.25314113999577E+01  1.14771546372067E+00
(PID.TID 0000.0001)  ploadbar=  1.01128763338932E+05
 cg2d: Sum(rhs),rhsMax =  -6.26414020065470E+01  1.14597619721883E+00
(PID.TID 0000.0001)  ploadbar=  1.01128757035907E+05
 cg2d: Sum(rhs),rhsMax =  -6.27466330347642E+01  1.14428016075187E+00
(PID.TID 0000.0001)  ploadbar=  1.01128750732882E+05
 cg2d: Sum(rhs),rhsMax =  -6.28476487263518E+01  1.14261960235775E+00
(PID.TID 0000.0001)  ploadbar=  1.01128744429857E+05
 cg2d: Sum(rhs),rhsMax =  -6.29450130112791E+01  1.14099184272724E+00
(PID.TID 0000.0001)  ploadbar=  1.01128783070213E+05
 cg2d: Sum(rhs),rhsMax =  -6.30354914339173E+01  1.13945621754200E+00
(PID.TID 0000.0001)  ploadbar=  1.01128821710570E+05
 cg2d: Sum(rhs),rhsMax =  -6.31228491544281E+01  1.13794375970749E+00
(PID.TID 0000.0001)  ploadbar=  1.01128860350926E+05
 cg2d: Sum(rhs),rhsMax =  -6.32068338562748E+01  1.13645682024286E+00
(PID.TID 0000.0001)  ploadbar=  1.01128898991283E+05
 cg2d: Sum(rhs),rhsMax =  -6.32864796097618E+01  1.13500965874006E+00
(PID.TID 0000.0001)  ploadbar=  1.01128937631639E+05
 cg2d: Sum(rhs),rhsMax =  -6.33618114594575E+01  1.13360242952746E+00
(PID.TID 0000.0001)  ploadbar=  1.01128976271996E+05
 cg2d: Sum(rhs),rhsMax =  -6.34329115425951E+01  1.13231725900856E+00
(PID.TID 0000.0001)  ploadbar=  1.01130213066014E+05
 cg2d: Sum(rhs),rhsMax =  -6.35031550646100E+01  1.13108772897046E+00
(PID.TID 0000.0001)  ploadbar=  1.01131449860033E+05
 cg2d: Sum(rhs),rhsMax =  -6.33205397613611E+01  1.13440741114787E+00
(PID.TID 0000.0001)  ploadbar=  1.01132686654051E+05
 cg2d: Sum(rhs),rhsMax =  -6.23040040396895E+01  1.15300869607207E+00
(PID.TID 0000.0001)  ploadbar=  1.01133923448070E+05
 cg2d: Sum(rhs),rhsMax =  -6.13870814518878E+01  1.17035739147611E+00
(PID.TID 0000.0001)  ploadbar=  1.01135160242088E+05
 cg2d: Sum(rhs),rhsMax =  -6.05555892098501E+01  1.18658871095534E+00
(PID.TID 0000.0001)  ploadbar=  1.01136397036106E+05
 cg2d: Sum(rhs),rhsMax =  -5.98142924858311E+01  1.20148786861376E+00
(PID.TID 0000.0001)  ploadbar=  1.01137543880325E+05
 cg2d: Sum(rhs),rhsMax =  -5.91455915145052E+01  1.21529770783569E+00
(PID.TID 0000.0001)  ploadbar=  1.01138690724543E+05
 cg2d: Sum(rhs),rhsMax =  -5.85457018263147E+01  1.22800692083494E+00
(PID.TID 0000.0001)  ploadbar=  1.01139837568762E+05
 cg2d: Sum(rhs),rhsMax =  -5.80151760838260E+01  1.23952633262847E+00
(PID.TID 0000.0001)  ploadbar=  1.01140984412980E+05
 cg2d: Sum(rhs),rhsMax =  -5.75594002806684E+01  1.24966604308827E+00
(PID.TID 0000.0001)  ploadbar=  1.01142131257199E+05
 cg2d: Sum(rhs),rhsMax =  -5.71780953329142E+01  1.25835628390886E+00
(PID.TID 0000.0001)  ploadbar=  1.01143278101417E+05
 cg2d: Sum(rhs),rhsMax =  -5.69293273128173E+01  1.26419495854215E+00
(PID.TID 0000.0001)  ploadbar=  1.01143532985608E+05
 cg2d: Sum(rhs),rhsMax =  -5.67661887466103E+01  1.26813947760886E+00
(PID.TID 0000.0001)  ploadbar=  1.01143787869799E+05
 cg2d: Sum(rhs),rhsMax =  -5.66739746233460E+01  1.27048528108994E+00
(PID.TID 0000.0001)  ploadbar=  1.01144042753990E+05
 cg2d: Sum(rhs),rhsMax =  -5.66402930819442E+01  1.27149105297611E+00
(PID.TID 0000.0001)  ploadbar=  1.01144297638180E+05
 cg2d: Sum(rhs),rhsMax =  -5.66495121953725E+01  1.27149909438588E+00
(PID.TID 0000.0001)  ploadbar=  1.01144552522371E+05
 cg2d: Sum(rhs),rhsMax =  -5.66950808083382E+01  1.27065602247698E+00
(PID.TID 0000.0001)  ploadbar=  1.01144807406562E+05
 cg2d: Sum(rhs),rhsMax =  -5.67546891023244E+01  1.26947625946454E+00
(PID.TID 0000.0001)  ploadbar=  1.01145770654111E+05
 cg2d: Sum(rhs),rhsMax =  -5.68660397041276E+01  1.26711950899051E+00
(PID.TID 0000.0001)  ploadbar=  1.01146733901661E+05
 cg2d: Sum(rhs),rhsMax =  -5.70143137373560E+01  1.26392538911513E+00
(PID.TID 0000.0001)  ploadbar=  1.01147697149210E+05
 cg2d: Sum(rhs),rhsMax =  -5.71964253053766E+01  1.25997385554255E+00
(PID.TID 0000.0001)  ploadbar=  1.01148660396760E+05
 cg2d: Sum(rhs),rhsMax =  -5.74108760211794E+01  1.25531231409858E+00
(PID.TID 0000.0001)  ploadbar=  1.01149623644309E+05
 cg2d: Sum(rhs),rhsMax =  -5.76028669241746E+01  1.25114482294430E+00
(PID.TID 0000.0001)  ploadbar=  1.01150586891859E+05
 cg2d: Sum(rhs),rhsMax =  -5.81158075999189E+01  1.24018511571813E+00
(PID.TID 0000.0001)  ploadbar=  1.01152275664687E+05
 cg2d: Sum(rhs),rhsMax =  -5.88200327161107E+01  1.22547544877810E+00
(PID.TID 0000.0001)  ploadbar=  1.01153964437516E+05
 cg2d: Sum(rhs),rhsMax =  -5.95175996583399E+01  1.21130460004416E+00
(PID.TID 0000.0001)  ploadbar=  1.01155653210344E+05
 cg2d: Sum(rhs),rhsMax =  -6.00915660586248E+01  1.19997803388537E+00
(PID.TID 0000.0001)  ploadbar=  1.01157341983173E+05
 cg2d: Sum(rhs),rhsMax =  -6.06368058702838E+01  1.18948035046941E+00
(PID.TID 0000.0001)  ploadbar=  1.01159030756001E+05
 cg2d: Sum(rhs),rhsMax =  -6.11851419807969E+01  1.17916061530146E+00
(PID.TID 0000.0001)  ploadbar=  1.01160719528829E+05
 cg2d: Sum(rhs),rhsMax =  -6.17040112706143E+01  1.16958021073607E+00
(PID.TID 0000.0001)  ploadbar=  1.01161255343381E+05
 cg2d: Sum(rhs),rhsMax =  -6.21993346246834E+01  1.16059744328452E+00
(PID.TID 0000.0001)  ploadbar=  1.01161791157931E+05
 cg2d: Sum(rhs),rhsMax =  -6.26657500318101E+01  1.15228466169947E+00
(PID.TID 0000.0001)  ploadbar=  1.01162326972482E+05
 cg2d: Sum(rhs),rhsMax =  -6.31030456471258E+01  1.14462220479617E+00
(PID.TID 0000.0001)  ploadbar=  1.01162862787033E+05
 cg2d: Sum(rhs),rhsMax =  -6.35101806725255E+01  1.13760548503748E+00
(PID.TID 0000.0001)  ploadbar=  1.01163398601584E+05
 cg2d: Sum(rhs),rhsMax =  -6.38875652225364E+01  1.13120324539018E+00
(PID.TID 0000.0001)  ploadbar=  1.01163934416135E+05
 cg2d: Sum(rhs),rhsMax =  -6.42254086111188E+01  1.12559110051068E+00
(PID.TID 0000.0001)  ploadbar=  1.01163522678446E+05
 cg2d: Sum(rhs),rhsMax =  -6.45577344128476E+01  1.12014993677845E+00
(PID.TID 0000.0001)  ploadbar=  1.01163110940757E+05
 cg2d: Sum(rhs),rhsMax =  -6.48930614743582E+01  1.11472700596377E+00
(PID.TID 0000.0001)  ploadbar=  1.01162699203068E+05
 cg2d: Sum(rhs),rhsMax =  -6.52253855479459E+01  1.10942419781750E+00
(PID.TID 0000.0001)  ploadbar=  1.01162287465378E+05
 cg2d: Sum(rhs),rhsMax =  -6.55547936364197E+01  1.10423618437149E+00
(PID.TID 0000.0001)  ploadbar=  1.01161875727689E+05
 cg2d: Sum(rhs),rhsMax =  -6.58783481529143E+01  1.09920863205820E+00
(PID.TID 0000.0001)  ploadbar=  1.01161463990000E+05
 cg2d: Sum(rhs),rhsMax =  -6.61361741003026E+01  1.09530276489392E+00
(PID.TID 0000.0001)  ploadbar=  1.01161852158020E+05
 cg2d: Sum(rhs),rhsMax =  -6.63685313371463E+01  1.09183040242001E+00
(PID.TID 0000.0001)  ploadbar=  1.01162240326040E+05
 cg2d: Sum(rhs),rhsMax =  -6.65863560476220E+01  1.08860501000749E+00
(PID.TID 0000.0001)  ploadbar=  1.01162628494060E+05
 cg2d: Sum(rhs),rhsMax =  -6.67863942185007E+01  1.08567575868443E+00
(PID.TID 0000.0001)  ploadbar=  1.01163016662079E+05
 cg2d: Sum(rhs),rhsMax =  -6.69705271913711E+01  1.08300723044502E+00
(PID.TID 0000.0001)  ploadbar=  1.01163404830099E+05
 cg2d: Sum(rhs),rhsMax =  -6.71389296836447E+01  1.08058844414199E+00
(PID.TID 0000.0001)  ploadbar=  1.01163792998119E+05
 cg2d: Sum(rhs),rhsMax =  -6.73554622230815E+01  1.07746824078588E+00
(PID.TID 0000.0001)  ploadbar=  1.01164204793378E+05
 cg2d: Sum(rhs),rhsMax =  -6.75599317441837E+01  1.07461032846970E+00
(PID.TID 0000.0001)  ploadbar=  1.01164616588636E+05
 cg2d: Sum(rhs),rhsMax =  -6.75147593461692E+01  1.07578061482434E+00
(PID.TID 0000.0001)  ploadbar=  1.01165028383895E+05
 cg2d: Sum(rhs),rhsMax =  -6.74302319334539E+01  1.07762833838569E+00
(PID.TID 0000.0001)  ploadbar=  1.01165440179154E+05
 cg2d: Sum(rhs),rhsMax =  -6.73472981700927E+01  1.07950214639604E+00
(PID.TID 0000.0001)  ploadbar=  1.01165851974412E+05
 cg2d: Sum(rhs),rhsMax =  -6.72658407079091E+01  1.08139994064436E+00
(PID.TID 0000.0001)  ploadbar=  1.01166263769671E+05
 cg2d: Sum(rhs),rhsMax =  -6.72834169211795E+01  1.08169571383456E+00
(PID.TID 0000.0001)  ploadbar=  1.01165586578630E+05
 cg2d: Sum(rhs),rhsMax =  -6.73015551632949E+01  1.08197202797171E+00
(PID.TID 0000.0001)  ploadbar=  1.01164909387590E+05
 cg2d: Sum(rhs),rhsMax =  -6.73140114282747E+01  1.08233177590587E+00
(PID.TID 0000.0001)  ploadbar=  1.01164232196549E+05
 cg2d: Sum(rhs),rhsMax =  -6.73246236006168E+01  1.08271457918152E+00
(PID.TID 0000.0001)  ploadbar=  1.01163555005509E+05
 cg2d: Sum(rhs),rhsMax =  -6.73331340390964E+01  1.08312812790588E+00
(PID.TID 0000.0001)  ploadbar=  1.01162877814468E+05
 cg2d: Sum(rhs),rhsMax =  -6.73382257855465E+01  1.08359207183732E+00
(PID.TID 0000.0001)  ploadbar=  1.01162200623428E+05
 cg2d: Sum(rhs),rhsMax =  -6.72829652926962E+01  1.08502752655167E+00
(PID.TID 0000.0001)  ploadbar=  1.01164084759865E+05
 cg2d: Sum(rhs),rhsMax =  -6.72290950834121E+01  1.08643648087255E+00
(PID.TID 0000.0001)  ploadbar=  1.01165968896302E+05
 cg2d: Sum(rhs),rhsMax =  -6.71761240988555E+01  1.08782502309741E+00
(PID.TID 0000.0001)  ploadbar=  1.01167853032739E+05
 cg2d: Sum(rhs),rhsMax =  -6.71202677031401E+01  1.08925521303933E+00
(PID.TID 0000.0001)  ploadbar=  1.01169737169176E+05
 cg2d: Sum(rhs),rhsMax =  -6.70636962747111E+01  1.09069289760608E+00
(PID.TID 0000.0001)  ploadbar=  1.01171621305613E+05
 cg2d: Sum(rhs),rhsMax =  -6.70175519600711E+01  1.09195628904648E+00
(PID.TID 0000.0001)  ploadbar=  1.01173505442050E+05
 cg2d: Sum(rhs),rhsMax =  -6.68968120288522E+01  1.09436297227070E+00
(PID.TID 0000.0001)  ploadbar=  1.01173393311036E+05
 cg2d: Sum(rhs),rhsMax =  -6.68382226804795E+01  1.09568043557166E+00
(PID.TID 0000.0001)  ploadbar=  1.01173281180023E+05
 cg2d: Sum(rhs),rhsMax =  -6.67764833800743E+01  1.09697520480288E+00
(PID.TID 0000.0001)  ploadbar=  1.01173169049010E+05
 cg2d: Sum(rhs),rhsMax =  -6.67130189880653E+01  1.09822628599912E+00
(PID.TID 0000.0001)  ploadbar=  1.01173056917997E+05
 cg2d: Sum(rhs),rhsMax =  -6.66470111391621E+01  1.09945204626680E+00
(PID.TID 0000.0001)  ploadbar=  1.01172944786984E+05
 cg2d: Sum(rhs),rhsMax =  -6.65793289660634E+01  1.10064198553523E+00
(PID.TID 0000.0001)  ploadbar=  1.01172832655971E+05
 cg2d: Sum(rhs),rhsMax =  -6.65835759281153E+01  1.10070869128426E+00
(PID.TID 0000.0001)  ploadbar=  1.01171310163931E+05
 cg2d: Sum(rhs),rhsMax =  -6.65921361398480E+01  1.10075854505687E+00
(PID.TID 0000.0001)  ploadbar=  1.01169787671892E+05
 cg2d: Sum(rhs),rhsMax =  -6.66066600164955E+01  1.10076160755348E+00
(PID.TID 0000.0001)  ploadbar=  1.01168265179853E+05
 cg2d: Sum(rhs),rhsMax =  -6.66260217422198E+01  1.10073725897533E+00
(PID.TID 0000.0001)  ploadbar=  1.01166742687813E+05
 cg2d: Sum(rhs),rhsMax =  -6.66485781328366E+01  1.10071282070765E+00
(PID.TID 0000.0001)  ploadbar=  1.01165220195774E+05
 cg2d: Sum(rhs),rhsMax =  -6.66744182846828E+01  1.10068666129661E+00
(PID.TID 0000.0001)  ploadbar=  1.01163697703735E+05
 cg2d: Sum(rhs),rhsMax =  -6.65990280146920E+01  1.10231438790408E+00
(PID.TID 0000.0001)  ploadbar=  1.01163175687182E+05
 cg2d: Sum(rhs),rhsMax =  -6.65201307047573E+01  1.10398626111115E+00
(PID.TID 0000.0001)  ploadbar=  1.01162653670629E+05
 cg2d: Sum(rhs),rhsMax =  -6.64462854623914E+01  1.10556380290917E+00
(PID.TID 0000.0001)  ploadbar=  1.01162131654076E+05
 cg2d: Sum(rhs),rhsMax =  -6.63731514356809E+01  1.10712082375287E+00
(PID.TID 0000.0001)  ploadbar=  1.01161609637524E+05
 cg2d: Sum(rhs),rhsMax =  -6.63028595591532E+01  1.10862413574254E+00
(PID.TID 0000.0001)  ploadbar=  1.01161087620971E+05
 cg2d: Sum(rhs),rhsMax =  -6.62368088802107E+01  1.11005127277943E+00
(PID.TID 0000.0001)  ploadbar=  1.01160565604418E+05
 cg2d: Sum(rhs),rhsMax =  -6.53654129189938E+01  1.12517445511299E+00
(PID.TID 0000.0001)  ploadbar=  1.01160688590245E+05
 cg2d: Sum(rhs),rhsMax =  -6.46031992255970E+01  1.13877145591728E+00
(PID.TID 0000.0001)  ploadbar=  1.01160811576073E+05
 cg2d: Sum(rhs),rhsMax =  -6.41134428352437E+01  1.14778828921901E+00
(PID.TID 0000.0001)  ploadbar=  1.01160934561900E+05
 cg2d: Sum(rhs),rhsMax =  -6.38666655339964E+01  1.15253549120795E+00
(PID.TID 0000.0001)  ploadbar=  1.01161057547728E+05
 cg2d: Sum(rhs),rhsMax =  -6.38251184388570E+01  1.15359105698102E+00
(PID.TID 0000.0001)  ploadbar=  1.01161180533556E+05
 cg2d: Sum(rhs),rhsMax =  -6.39505297507933E+01  1.15162607785261E+00
(PID.TID 0000.0001)  ploadbar=  1.01161303519383E+05
 cg2d: Sum(rhs),rhsMax =  -6.42302546664357E+01  1.14687262130221E+00
(PID.TID 0000.0001)  ploadbar=  1.01160695258641E+05
 cg2d: Sum(rhs),rhsMax =  -6.45655099705267E+01  1.14114287763544E+00
(PID.TID 0000.0001)  ploadbar=  1.01160086997898E+05
 cg2d: Sum(rhs),rhsMax =  -6.49685022301492E+01  1.13425406224857E+00
(PID.TID 0000.0001)  ploadbar=  1.01159478737156E+05
 cg2d: Sum(rhs),rhsMax =  -6.52071121941069E+01  1.13025793842964E+00
(PID.TID 0000.0001)  ploadbar=  1.01158870476413E+05
 cg2d: Sum(rhs),rhsMax =  -6.51222006758938E+01  1.13185552549911E+00
(PID.TID 0000.0001)  ploadbar=  1.01158262215671E+05
 cg2d: Sum(rhs),rhsMax =  -6.50351874818323E+01  1.13347310613275E+00
(PID.TID 0000.0001)  ploadbar=  1.01157653954929E+05
 cg2d: Sum(rhs),rhsMax =  -6.49862269378826E+01  1.13448520109045E+00
(PID.TID 0000.0001)  ploadbar=  1.01157574998183E+05
 cg2d: Sum(rhs),rhsMax =  -6.49369873448864E+01  1.13555012164004E+00
(PID.TID 0000.0001)  ploadbar=  1.01157496041437E+05
 cg2d: Sum(rhs),rhsMax =  -6.48877960008953E+01  1.13666160717394E+00
(PID.TID 0000.0001)  ploadbar=  1.01157417084691E+05
 cg2d: Sum(rhs),rhsMax =  -6.48423093215825E+01  1.13775505977163E+00
(PID.TID 0000.0001)  ploadbar=  1.01157338127944E+05
 cg2d: Sum(rhs),rhsMax =  -6.47997283661940E+01  1.13884471050479E+00
(PID.TID 0000.0001)  ploadbar=  1.01157259171198E+05
 cg2d: Sum(rhs),rhsMax =  -6.47606746869062E+01  1.13992084456173E+00
(PID.TID 0000.0001)  ploadbar=  1.01157180214452E+05
 cg2d: Sum(rhs),rhsMax =  -6.47283352804790E+01  1.14086800219660E+00
(PID.TID 0000.0001)  ploadbar=  1.01156524695254E+05
 cg2d: Sum(rhs),rhsMax =  -6.47000019120495E+01  1.14173495527281E+00
(PID.TID 0000.0001)  ploadbar=  1.01155869176056E+05
 cg2d: Sum(rhs),rhsMax =  -6.46784007842469E+01  1.14247637638818E+00
(PID.TID 0000.0001)  ploadbar=  1.01155213656858E+05
 cg2d: Sum(rhs),rhsMax =  -6.46614451643722E+01  1.14312935897028E+00
(PID.TID 0000.0001)  ploadbar=  1.01154558137660E+05
 cg2d: Sum(rhs),rhsMax =  -6.46492978654113E+01  1.14369217476203E+00
(PID.TID 0000.0001)  ploadbar=  1.01153902618462E+05
 cg2d: Sum(rhs),rhsMax =  -6.46416126744061E+01  1.14417529076935E+00
(PID.TID 0000.0001)  ploadbar=  1.01153247099264E+05
 cg2d: Sum(rhs),rhsMax =  -6.46275664756341E+01  1.14479974813946E+00
(PID.TID 0000.0001)  ploadbar=  1.01153499378328E+05
 cg2d: Sum(rhs),rhsMax =  -6.46178662168221E+01  1.14536875693479E+00
(PID.TID 0000.0001)  ploadbar=  1.01153751657392E+05
 cg2d: Sum(rhs),rhsMax =  -6.46097631347459E+01  1.14592945864318E+00
(PID.TID 0000.0001)  ploadbar=  1.01154003936456E+05
 cg2d: Sum(rhs),rhsMax =  -6.46052507890134E+01  1.14644650590390E+00
(PID.TID 0000.0001)  ploadbar=  1.01154256215520E+05
 cg2d: Sum(rhs),rhsMax =  -6.46054889463247E+01  1.14689702804121E+00
(PID.TID 0000.0001)  ploadbar=  1.01154508494584E+05
 cg2d: Sum(rhs),rhsMax =  -6.46110437745023E+01  1.14727191455903E+00
(PID.TID 0000.0001)  ploadbar=  1.01154760773647E+05
 cg2d: Sum(rhs),rhsMax =  -6.46612827582650E+01  1.14680381315818E+00
(PID.TID 0000.0001)  ploadbar=  1.01154460225129E+05
 cg2d: Sum(rhs),rhsMax =  -6.47161745178120E+01  1.14620282120747E+00
(PID.TID 0000.0001)  ploadbar=  1.01154159676610E+05
 cg2d: Sum(rhs),rhsMax =  -6.47649846350347E+01  1.14565798738100E+00
(PID.TID 0000.0001)  ploadbar=  1.01153859128091E+05
 cg2d: Sum(rhs),rhsMax =  -6.48119229580188E+01  1.14509679991220E+00
(PID.TID 0000.0001)  ploadbar=  1.01153558579572E+05
 cg2d: Sum(rhs),rhsMax =  -6.48558228303106E+01  1.14454557747154E+00
(PID.TID 0000.0001)  ploadbar=  1.01153258031054E+05
 cg2d: Sum(rhs),rhsMax =  -6.48960939608547E+01  1.14401823572626E+00
(PID.TID 0000.0001)  ploadbar=  1.01152957482535E+05
 cg2d: Sum(rhs),rhsMax =  -6.49184932668886E+01  1.14386145406564E+00
(PID.TID 0000.0001)  ploadbar=  1.01153334510533E+05
 cg2d: Sum(rhs),rhsMax =  -6.49504173193698E+01  1.14358727779350E+00
(PID.TID 0000.0001)  ploadbar=  1.01153711538532E+05
 cg2d: Sum(rhs),rhsMax =  -6.49789489890270E+01  1.14342161398949E+00
(PID.TID 0000.0001)  ploadbar=  1.01154088566530E+05
 cg2d: Sum(rhs),rhsMax =  -6.50081296714034E+01  1.14329266293939E+00
(PID.TID 0000.0001)  ploadbar=  1.01154465594529E+05
 cg2d: Sum(rhs),rhsMax =  -6.50418114446222E+01  1.14313249419234E+00
(PID.TID 0000.0001)  ploadbar=  1.01154842622527E+05
 cg2d: Sum(rhs),rhsMax =  -6.50807605559950E+01  1.14292774328700E+00
(PID.TID 0000.0001)  ploadbar=  1.01155219650526E+05
 cg2d: Sum(rhs),rhsMax =  -6.51320879581712E+01  1.14247655231587E+00
(PID.TID 0000.0001)  ploadbar=  1.01155943507714E+05
 cg2d: Sum(rhs),rhsMax =  -6.51850411555772E+01  1.14197004470389E+00
(PID.TID 0000.0001)  ploadbar=  1.01156667364902E+05
 cg2d: Sum(rhs),rhsMax =  -6.52400699326744E+01  1.14140308863825E+00
(PID.TID 0000.0001)  ploadbar=  1.01157391222090E+05
 cg2d: Sum(rhs),rhsMax =  -6.52959584705055E+01  1.14079854531150E+00
(PID.TID 0000.0001)  ploadbar=  1.01158115079278E+05
 cg2d: Sum(rhs),rhsMax =  -6.53525662286022E+01  1.14016039782904E+00
(PID.TID 0000.0001)  ploadbar=  1.01158838936466E+05
 cg2d: Sum(rhs),rhsMax =  -6.54101089223522E+01  1.13948522937655E+00
(PID.TID 0000.0001)  ploadbar=  1.01159562793654E+05
 cg2d: Sum(rhs),rhsMax =  -6.54517093680726E+01  1.13912450988399E+00
(PID.TID 0000.0001)  ploadbar=  1.01159096612119E+05
 cg2d: Sum(rhs),rhsMax =  -6.54974420413990E+01  1.13872051593954E+00
(PID.TID 0000.0001)  ploadbar=  1.01158630430583E+05
 cg2d: Sum(rhs),rhsMax =  -6.55373640123896E+01  1.13844368504514E+00
(PID.TID 0000.0001)  ploadbar=  1.01158164249048E+05
 cg2d: Sum(rhs),rhsMax =  -6.55753441716697E+01  1.13822453285575E+00
(PID.TID 0000.0001)  ploadbar=  1.01157698067512E+05
 cg2d: Sum(rhs),rhsMax =  -6.55459737632088E+01  1.13919664968426E+00
(PID.TID 0000.0001)  ploadbar=  1.01157231885976E+05
 cg2d: Sum(rhs),rhsMax =  -6.52949118867868E+01  1.14406072363770E+00
(PID.TID 0000.0001)  ploadbar=  1.01156765704441E+05
 cg2d: Sum(rhs),rhsMax =  -6.50707466620770E+01  1.14843230894414E+00
(PID.TID 0000.0001)  ploadbar=  1.01156863320822E+05
 cg2d: Sum(rhs),rhsMax =  -6.48925346152635E+01  1.15196189273714E+00
(PID.TID 0000.0001)  ploadbar=  1.01156960937203E+05
 cg2d: Sum(rhs),rhsMax =  -6.47609110131197E+01  1.15462648919322E+00
(PID.TID 0000.0001)  ploadbar=  1.01157058553584E+05
 cg2d: Sum(rhs),rhsMax =  -6.46819990620782E+01  1.15630659622591E+00
(PID.TID 0000.0001)  ploadbar=  1.01157156169965E+05
 cg2d: Sum(rhs),rhsMax =  -6.46503306178882E+01  1.15709544075113E+00
(PID.TID 0000.0001)  ploadbar=  1.01157253786346E+05
 cg2d: Sum(rhs),rhsMax =  -6.46602882267295E+01  1.15709343503243E+00
(PID.TID 0000.0001)  ploadbar=  1.01157351402727E+05
 cg2d: Sum(rhs),rhsMax =  -6.47294422522339E+01  1.15606047827084E+00
(PID.TID 0000.0001)  ploadbar=  1.01157277045410E+05
 cg2d: Sum(rhs),rhsMax =  -6.48529334274143E+01  1.15408636936424E+00
(PID.TID 0000.0001)  ploadbar=  1.01157202688093E+05
 cg2d: Sum(rhs),rhsMax =  -6.50330615997828E+01  1.15114192738956E+00
(PID.TID 0000.0001)  ploadbar=  1.01157128330776E+05
 cg2d: Sum(rhs),rhsMax =  -6.52692389552207E+01  1.14725259255497E+00
(PID.TID 0000.0001)  ploadbar=  1.01157053973459E+05
 cg2d: Sum(rhs),rhsMax =  -6.55609496329050E+01  1.14244915243402E+00
(PID.TID 0000.0001)  ploadbar=  1.01156979616142E+05
 cg2d: Sum(rhs),rhsMax =  -6.55409737060308E+01  1.14312710632809E+00
(PID.TID 0000.0001)  ploadbar=  1.01156905258825E+05
 cg2d: Sum(rhs),rhsMax =  -6.55217205990096E+01  1.14375403067312E+00
(PID.TID 0000.0001)  ploadbar=  1.01156662755822E+05
 cg2d: Sum(rhs),rhsMax =  -6.54972514652994E+01  1.14443340747456E+00
(PID.TID 0000.0001)  ploadbar=  1.01156420252818E+05
 cg2d: Sum(rhs),rhsMax =  -6.54791741993951E+01  1.14496552590490E+00
(PID.TID 0000.0001)  ploadbar=  1.01156177749815E+05
 cg2d: Sum(rhs),rhsMax =  -6.54643463321913E+01  1.14541258864619E+00
(PID.TID 0000.0001)  ploadbar=  1.01155935246811E+05
 cg2d: Sum(rhs),rhsMax =  -6.54518858781786E+01  1.14579352941241E+00
(PID.TID 0000.0001)  ploadbar=  1.01155692743808E+05
 cg2d: Sum(rhs),rhsMax =  -6.54428341772860E+01  1.14608847296696E+00
(PID.TID 0000.0001)  ploadbar=  1.01155450240804E+05
 cg2d: Sum(rhs),rhsMax =  -6.54373169437031E+01  1.14632709292632E+00
(PID.TID 0000.0001)  ploadbar=  1.01155554108176E+05
 cg2d: Sum(rhs),rhsMax =  -6.54304711747410E+01  1.14658675524209E+00
(PID.TID 0000.0001)  ploadbar=  1.01155657975549E+05
 cg2d: Sum(rhs),rhsMax =  -6.54291517435569E+01  1.14674552327651E+00
(PID.TID 0000.0001)  ploadbar=  1.01155761842922E+05
 cg2d: Sum(rhs),rhsMax =  -6.54287517698540E+01  1.14688257934761E+00
(PID.TID 0000.0001)  ploadbar=  1.01155865710294E+05
 cg2d: Sum(rhs),rhsMax =  -6.54272000660343E+01  1.14703441772726E+00
(PID.TID 0000.0001)  ploadbar=  1.01155969577667E+05
 cg2d: Sum(rhs),rhsMax =  -6.54275087836118E+01  1.14714742311166E+00
(PID.TID 0000.0001)  ploadbar=  1.01156073445039E+05
 cg2d: Sum(rhs),rhsMax =  -6.54586180200905E+01  1.14668456015135E+00
(PID.TID 0000.0001)  ploadbar=  1.01154966788462E+05
 cg2d: Sum(rhs),rhsMax =  -6.54935429143487E+01  1.14611830306930E+00
(PID.TID 0000.0001)  ploadbar=  1.01153860131885E+05
 cg2d: Sum(rhs),rhsMax =  -6.55335850283403E+01  1.14542546059899E+00
(PID.TID 0000.0001)  ploadbar=  1.01152753475308E+05
 cg2d: Sum(rhs),rhsMax =  -6.55748739288503E+01  1.14467246994242E+00
(PID.TID 0000.0001)  ploadbar=  1.01151646818731E+05
 cg2d: Sum(rhs),rhsMax =  -6.56134863113857E+01  1.14393288323728E+00
(PID.TID 0000.0001)  ploadbar=  1.01150540162154E+05
 cg2d: Sum(rhs),rhsMax =  -6.56471034562336E+01  1.14325048395275E+00
(PID.TID 0000.0001)  ploadbar=  1.01149433505577E+05
 cg2d: Sum(rhs),rhsMax =  -6.56786877332315E+01  1.14268523230577E+00
(PID.TID 0000.0001)  ploadbar=  1.01147846206732E+05
 cg2d: Sum(rhs),rhsMax =  -6.57138047920239E+01  1.14213534713385E+00
(PID.TID 0000.0001)  ploadbar=  1.01146258907886E+05
 cg2d: Sum(rhs),rhsMax =  -6.57493027381464E+01  1.14165517929913E+00
(PID.TID 0000.0001)  ploadbar=  1.01144671609040E+05
 cg2d: Sum(rhs),rhsMax =  -6.57838021479971E+01  1.14126856324863E+00
(PID.TID 0000.0001)  ploadbar=  1.01143084310195E+05
 cg2d: Sum(rhs),rhsMax =  -6.58172108216788E+01  1.14097673487250E+00
(PID.TID 0000.0001)  ploadbar=  1.01141497011349E+05
 cg2d: Sum(rhs),rhsMax =  -6.58498196926180E+01  1.14077438803708E+00
(PID.TID 0000.0001)  ploadbar=  1.01139909712504E+05
 cg2d: Sum(rhs),rhsMax =  -6.58905430897387E+01  1.14044049512624E+00
(PID.TID 0000.0001)  ploadbar=  1.01138328414534E+05
 cg2d: Sum(rhs),rhsMax =  -6.59333787688155E+01  1.14007642949323E+00
(PID.TID 0000.0001)      cg2d_init_res =   3.07768212430178E-01
(PID.TID 0000.0001)      cg2d_iters(min,last) =      -1     149
(PID.TID 0000.0001)      cg2d_last_res =   9.77355600647366E-08
(PID.TID 0000.0001) // =======================================================
(PID.TID 0000.0001) // Begin MONITOR dynamic field statistics
(PID.TID 0000.0001) // =======================================================
(PID.TID 0000.0001) %MON time_tsnumber                =                 12264
(PID.TID 0000.0001) %MON time_secondsf                =   4.4150400000000E+07
(PID.TID 0000.0001) %MON dynstat_eta_max              =   1.1592442360396E+00
(PID.TID 0000.0001) %MON dynstat_eta_min              =  -5.9722036695423E+00
(PID.TID 0000.0001) %MON dynstat_eta_mean             =   3.8045414785541E-02
(PID.TID 0000.0001) %MON dynstat_eta_sd               =   7.9259331883604E-01
(PID.TID 0000.0001) %MON dynstat_eta_del2             =   2.6133093449582E-04
(PID.TID 0000.0001) %MON dynstat_uvel_max             =   7.9530316101161E-01
(PID.TID 0000.0001) %MON dynstat_uvel_min             =  -9.4639955990203E-01
(PID.TID 0000.0001) %MON dynstat_uvel_mean            =   1.4477649661044E-03
(PID.TID 0000.0001) %MON dynstat_uvel_sd              =   2.0658870929910E-02
(PID.TID 0000.0001) %MON dynstat_uvel_del2            =   8.3876712512547E-06
(PID.TID 0000.0001) %MON dynstat_vvel_max             =   8.6080733198416E-01
(PID.TID 0000.0001) %MON dynstat_vvel_min             =  -9.9107621874462E-01
(PID.TID 0000.0001) %MON dynstat_vvel_mean            =   1.1511729731920E-03
(PID.TID 0000.0001) %MON dynstat_vvel_sd              =   2.1051828520947E-02
(PID.TID 0000.0001) %MON dynstat_vvel_del2            =   8.7425630109959E-06
(PID.TID 0000.0001) %MON dynstat_wvel_max             =   9.8980493742660E-04
(PID.TID 0000.0001) %MON dynstat_wvel_min             =  -8.5194152800346E-04
(PID.TID 0000.0001) %MON dynstat_wvel_mean            =  -2.6688864462571E-09
(PID.TID 0000.0001) %MON dynstat_wvel_sd              =   1.9264758374899E-05
(PID.TID 0000.0001) %MON dynstat_wvel_del2            =   1.5462722977205E-08
(PID.TID 0000.0001) %MON dynstat_theta_max            =   3.1954680466671E+01
(PID.TID 0000.0001) %MON dynstat_theta_min            =  -1.9824612887478E+00
(PID.TID 0000.0001) %MON dynstat_theta_mean           =   3.5851196470320E+00
(PID.TID 0000.0001) %MON dynstat_theta_sd             =   4.4406449054104E+00
(PID.TID 0000.0001) %MON dynstat_theta_del2           =   8.6984636855452E-05
(PID.TID 0000.0001) %MON dynstat_salt_max             =   4.0647919860954E+01
(PID.TID 0000.0001) %MON dynstat_salt_min             =   2.1800132563476E+01
(PID.TID 0000.0001) %MON dynstat_salt_mean            =   3.4727271542884E+01
(PID.TID 0000.0001) %MON dynstat_salt_sd              =   3.7557618771367E-01
(PID.TID 0000.0001) %MON dynstat_salt_del2            =   1.8917845168777E-05
(PID.TID 0000.0001) %MON dynstat_sst_max              =   3.1954680466671E+01
(PID.TID 0000.0001) %MON dynstat_sst_min              =  -1.9607583270514E+00
(PID.TID 0000.0001) %MON dynstat_sst_mean             =   1.8210068584216E+01
(PID.TID 0000.0001) %MON dynstat_sst_sd               =   1.0430773179172E+01
(PID.TID 0000.0001) %MON dynstat_sst_del2             =   6.0816388197850E-04
(PID.TID 0000.0001) %MON dynstat_sss_max              =   3.9476211999258E+01
(PID.TID 0000.0001) %MON dynstat_sss_min              =   2.1800132563476E+01
(PID.TID 0000.0001) %MON dynstat_sss_mean             =   3.4755433027356E+01
(PID.TID 0000.0001) %MON dynstat_sss_sd               =   1.1611453861007E+00
(PID.TID 0000.0001) %MON dynstat_sss_del2             =   3.0159283045610E-04
(PID.TID 0000.0001) %MON forcing_qnet_max             =   8.9696709734569E+02
(PID.TID 0000.0001) %MON forcing_qnet_min             =  -5.6742086426022E+02
(PID.TID 0000.0001) %MON forcing_qnet_mean            =   4.2016276884250E+01
(PID.TID 0000.0001) %MON forcing_qnet_sd              =   1.6354114809444E+02
(PID.TID 0000.0001) %MON forcing_qnet_del2            =   8.8365782362494E-02
(PID.TID 0000.0001) %MON forcing_qsw_max              =   4.9634133928860E+01
(PID.TID 0000.0001) %MON forcing_qsw_min              =  -6.8962575688705E+02
(PID.TID 0000.0001) %MON forcing_qsw_mean             =  -1.1566160402523E+02
(PID.TID 0000.0001) %MON forcing_qsw_sd               =   1.4593810165755E+02
(PID.TID 0000.0001) %MON forcing_qsw_del2             =   5.4262740832598E-02
(PID.TID 0000.0001) %MON forcing_empmr_max            =   2.2904249318373E-03
(PID.TID 0000.0001) %MON forcing_empmr_min            =  -3.1695470191408E-03
(PID.TID 0000.0001) %MON forcing_empmr_mean           =  -3.5946614950279E-06
(PID.TID 0000.0001) %MON forcing_empmr_sd             =   9.8954775839706E-05
(PID.TID 0000.0001) %MON forcing_empmr_del2           =   2.6131706324164E-07
(PID.TID 0000.0001) %MON forcing_fu_max               =   1.2695122758547E+00
(PID.TID 0000.0001) %MON forcing_fu_min               =  -6.8735981980960E-01
(PID.TID 0000.0001) %MON forcing_fu_mean              =   6.3337866476500E-03
(PID.TID 0000.0001) %MON forcing_fu_sd                =   1.3384274713191E-01
(PID.TID 0000.0001) %MON forcing_fu_del2              =   6.2855856366303E-05
(PID.TID 0000.0001) %MON forcing_fv_max               =   7.0823138580706E-01
(PID.TID 0000.0001) %MON forcing_fv_min               =  -5.6532067060471E-01
(PID.TID 0000.0001) %MON forcing_fv_mean              =   2.5857488957595E-03
(PID.TID 0000.0001) %MON forcing_fv_sd                =   1.1175937580200E-01
(PID.TID 0000.0001) %MON forcing_fv_del2              =   6.0509233353419E-05
(PID.TID 0000.0001) %MON trAdv_CFL_u_max              =   5.5008525911948E-02
(PID.TID 0000.0001) %MON trAdv_CFL_v_max              =   6.0862948186871E-02
(PID.TID 0000.0001) %MON trAdv_CFL_w_max              =   1.2294931920619E-01
(PID.TID 0000.0001) %MON advcfl_uvel_max              =   4.7157049401557E-02
(PID.TID 0000.0001) %MON advcfl_vvel_max              =   6.3481480204916E-02
(PID.TID 0000.0001) %MON advcfl_wvel_max              =   1.0546995612475E-01
(PID.TID 0000.0001) %MON advcfl_W_hf_max              =   1.1058961662828E-01
(PID.TID 0000.0001) %MON pe_b_mean                    =   1.3335051099350E-03
(PID.TID 0000.0001) %MON ke_max                       =   5.3654779149820E-01
(PID.TID 0000.0001) %MON ke_mean                      =   4.2114190600845E-04
(PID.TID 0000.0001) %MON ke_vol                       =   1.3350114932227E+18
(PID.TID 0000.0001) %MON vort_r_min                   =  -2.3544476215243E-05
(PID.TID 0000.0001) %MON vort_r_max                   =   2.2458947698549E-05
(PID.TID 0000.0001) %MON vort_a_mean                  =  -1.9727725688088E-05
(PID.TID 0000.0001) %MON vort_a_sd                    =   7.4542977647891E-05
(PID.TID 0000.0001) %MON vort_p_mean                  =  -2.1760108903734E-05
(PID.TID 0000.0001) %MON vort_p_sd                    =   9.7248059005432E-05
(PID.TID 0000.0001) %MON surfExpan_theta_mean         =  -1.6229485706988E-07
(PID.TID 0000.0001) %MON surfExpan_salt_mean          =   3.3701108675915E-08
(PID.TID 0000.0001) // =======================================================
(PID.TID 0000.0001) // End MONITOR dynamic field statistics
(PID.TID 0000.0001) // =======================================================
(PID.TID 0000.0001)  ploadbar=  1.01136747116564E+05
(PID.TID 0000.0001) %SBO sbo_mass                     =   1.3737574967191E+21
(PID.TID 0000.0001) %SBO sbo_mass_fw                  =   4.4681348578762E+16
(PID.TID 0000.0001) %SBO sbo_zoamc                    =   1.1857357591018E+25
(PID.TID 0000.0001) %SBO sbo_zoamp                    =   2.9276657954410E+30
(PID.TID 0000.0001) // =======================================================
(PID.TID 0000.0001) // Begin MONITOR SEAICE statistics
(PID.TID 0000.0001) // =======================================================
(PID.TID 0000.0001) %MON seaice_tsnumber              =                 12264
(PID.TID 0000.0001) %MON seaice_time_sec              =   4.4150400000000E+07
(PID.TID 0000.0001) %MON seaice_uice_max              =   4.0000000000000E-01
(PID.TID 0000.0001) %MON seaice_uice_min              =  -4.0000000000000E-01
(PID.TID 0000.0001) %MON seaice_uice_mean             =  -5.6839656740848E-03
(PID.TID 0000.0001) %MON seaice_uice_sd               =   1.8120402956829E-01
(PID.TID 0000.0001) %MON seaice_uice_del2             =   1.4154185078847E-04
(PID.TID 0000.0001) %MON seaice_vice_max              =   4.0000000000000E-01
(PID.TID 0000.0001) %MON seaice_vice_min              =  -4.0000000000000E-01
(PID.TID 0000.0001) %MON seaice_vice_mean             =  -1.2226808926684E-02
(PID.TID 0000.0001) %MON seaice_vice_sd               =   1.8074137753939E-01
(PID.TID 0000.0001) %MON seaice_vice_del2             =   1.4313644188780E-04
(PID.TID 0000.0001) %MON seaice_area_max              =   9.7000000000000E-01
(PID.TID 0000.0001) %MON seaice_area_min              =   0.0000000000000E+00
(PID.TID 0000.0001) %MON seaice_area_mean             =   6.2605103721436E-02
(PID.TID 0000.0001) %MON seaice_area_sd               =   2.2929688525120E-01
(PID.TID 0000.0001) %MON seaice_area_del2             =   2.1104585074731E-04
(PID.TID 0000.0001) %MON seaice_heff_max              =   5.8024843880290E+00
(PID.TID 0000.0001) %MON seaice_heff_min              =   0.0000000000000E+00
(PID.TID 0000.0001) %MON seaice_heff_mean             =   8.9647720157452E-02
(PID.TID 0000.0001) %MON seaice_heff_sd               =   4.2284289200511E-01
(PID.TID 0000.0001) %MON seaice_heff_del2             =   2.7889725769883E-04
(PID.TID 0000.0001) %MON seaice_hsnow_max             =   1.2272836551279E+00
(PID.TID 0000.0001) %MON seaice_hsnow_min             =  -4.2962352207852E-05
(PID.TID 0000.0001) %MON seaice_hsnow_mean            =   1.2349233093828E-02
(PID.TID 0000.0001) %MON seaice_hsnow_sd              =   5.9725367392664E-02
(PID.TID 0000.0001) %MON seaice_hsnow_del2            =   5.1099222373726E-05
(PID.TID 0000.0001) // =======================================================
(PID.TID 0000.0001) // End MONITOR SEAICE statistics
(PID.TID 0000.0001) // =======================================================
(PID.TID 0000.0001) // =======================================================
(PID.TID 0000.0001) // Begin MONITOR EXF statistics
(PID.TID 0000.0001) // =======================================================
(PID.TID 0000.0001) %MON exf_tsnumber                 =                 12264
(PID.TID 0000.0001) %MON exf_time_sec                 =   4.4150400000000E+07
(PID.TID 0000.0001) %MON exf_ustress_max              =   1.2865241765976E+00
(PID.TID 0000.0001) %MON exf_ustress_min              =  -8.1635534763336E-01
(PID.TID 0000.0001) %MON exf_ustress_mean             =   5.9774967967754E-03
(PID.TID 0000.0001) %MON exf_ustress_sd               =   1.3468711429316E-01
(PID.TID 0000.0001) %MON exf_ustress_del2             =   8.0390285477207E-05
(PID.TID 0000.0001) %MON exf_vstress_max              =   9.0066087764781E-01
(PID.TID 0000.0001) %MON exf_vstress_min              =  -5.9247130155563E-01
(PID.TID 0000.0001) %MON exf_vstress_mean             =   2.5268524573670E-03
(PID.TID 0000.0001) %MON exf_vstress_sd               =   1.1121150225391E-01
(PID.TID 0000.0001) %MON exf_vstress_del2             =   7.5919952459886E-05
(PID.TID 0000.0001) %MON exf_hflux_max                =   1.2851502028990E+03
(PID.TID 0000.0001) %MON exf_hflux_min                =  -5.3385250158247E+02
(PID.TID 0000.0001) %MON exf_hflux_mean               =   4.3377373942484E+01
(PID.TID 0000.0001) %MON exf_hflux_sd                 =   1.8569039655416E+02
(PID.TID 0000.0001) %MON exf_hflux_del2               =   4.7768567018355E-01
(PID.TID 0000.0001) %MON exf_sflux_max                =   2.0645157116752E-07
(PID.TID 0000.0001) %MON exf_sflux_min                =  -3.1590253404333E-06
(PID.TID 0000.0001) %MON exf_sflux_mean               =  -2.6174691429424E-09
(PID.TID 0000.0001) %MON exf_sflux_sd                 =   8.7211533255460E-08
(PID.TID 0000.0001) %MON exf_sflux_del2               =   2.3046794171991E-10
(PID.TID 0000.0001) %MON exf_wspeed_max               =   2.1071719169617E+01
(PID.TID 0000.0001) %MON exf_wspeed_min               =   5.4447671771049E-01
(PID.TID 0000.0001) %MON exf_wspeed_mean              =   7.3060564547231E+00
(PID.TID 0000.0001) %MON exf_wspeed_sd                =   3.2609362541269E+00
(PID.TID 0000.0001) %MON exf_wspeed_del2              =   1.7570801186250E-02
(PID.TID 0000.0001) %MON exf_atemp_max                =   3.1236984863281E+02
(PID.TID 0000.0001) %MON exf_atemp_min                =   2.2243785896301E+02
(PID.TID 0000.0001) %MON exf_atemp_mean               =   2.8988432183719E+02
(PID.TID 0000.0001) %MON exf_atemp_sd                 =   1.1282403598058E+01
(PID.TID 0000.0001) %MON exf_atemp_del2               =   3.5256817633431E-02
(PID.TID 0000.0001) %MON exf_aqh_max                  =   2.5599951855838E-02
(PID.TID 0000.0001) %MON exf_aqh_min                  =  -8.1001237504097E-06
(PID.TID 0000.0001) %MON exf_aqh_mean                 =   1.1203668068331E-02
(PID.TID 0000.0001) %MON exf_aqh_sd                   =   5.7744294866076E-03
(PID.TID 0000.0001) %MON exf_aqh_del2                 =   2.1125876073749E-05
(PID.TID 0000.0001) %MON exf_lwflux_max               =   2.2107741928002E+02
(PID.TID 0000.0001) %MON exf_lwflux_min               =  -5.0162240768970E+01
(PID.TID 0000.0001) %MON exf_lwflux_mean              =   4.3381497253543E+01
(PID.TID 0000.0001) %MON exf_lwflux_sd                =   2.4858686643352E+01
(PID.TID 0000.0001) %MON exf_lwflux_del2              =   1.1301558089375E-01
(PID.TID 0000.0001) %MON exf_evap_max                 =   2.7231878352172E-07
(PID.TID 0000.0001) %MON exf_evap_min                 =  -2.2073273580723E-08
(PID.TID 0000.0001) %MON exf_evap_mean                =   4.2401896542504E-08
(PID.TID 0000.0001) %MON exf_evap_sd                  =   2.9503459263405E-08
(PID.TID 0000.0001) %MON exf_evap_del2                =   9.5705078309164E-11
(PID.TID 0000.0001) %MON exf_precip_max               =   1.5121862020351E-06
(PID.TID 0000.0001) %MON exf_precip_min               =  -2.6223814231230E-08
(PID.TID 0000.0001) %MON exf_precip_mean              =   4.0368094811504E-08
(PID.TID 0000.0001) %MON exf_precip_sd                =   7.0632203047813E-08
(PID.TID 0000.0001) %MON exf_precip_del2              =   2.0068203067563E-10
(PID.TID 0000.0001) %MON exf_swflux_max               =   5.2556553562368E+01
(PID.TID 0000.0001) %MON exf_swflux_min               =  -6.2813253172984E+02
(PID.TID 0000.0001) %MON exf_swflux_mean              =  -1.2635579363569E+02
(PID.TID 0000.0001) %MON exf_swflux_sd                =   1.4801263704396E+02
(PID.TID 0000.0001) %MON exf_swflux_del2              =   3.6903288576310E-01
(PID.TID 0000.0001) %MON exf_swdown_max               =   6.7794329833984E+02
(PID.TID 0000.0001) %MON exf_swdown_min               =  -6.6663272857666E+01
(PID.TID 0000.0001) %MON exf_swdown_mean              =   1.3737213459820E+02
(PID.TID 0000.0001) %MON exf_swdown_sd                =   1.6009932505260E+02
(PID.TID 0000.0001) %MON exf_swdown_del2              =   4.0177649593747E-01
(PID.TID 0000.0001) %MON exf_lwdown_max               =   4.7118644714355E+02
(PID.TID 0000.0001) %MON exf_lwdown_min               =   7.9124198913574E+01
(PID.TID 0000.0001) %MON exf_lwdown_mean              =   3.6697663210888E+02
(PID.TID 0000.0001) %MON exf_lwdown_sd                =   5.8464628006844E+01
(PID.TID 0000.0001) %MON exf_lwdown_del2              =   7.0356083031524E-01
(PID.TID 0000.0001) %MON exf_apressure_max            =   1.0354763671875E+05
(PID.TID 0000.0001) %MON exf_apressure_min            =   9.4401535156250E+04
(PID.TID 0000.0001) %MON exf_apressure_mean           =   1.0113516581859E+05
(PID.TID 0000.0001) %MON exf_apressure_sd             =   1.1485221914056E+03
(PID.TID 0000.0001) %MON exf_apressure_del2           =   2.0698477053185E+02
(PID.TID 0000.0001) %MON exf_runoff_max               =   3.1856565641885E-06
(PID.TID 0000.0001) %MON exf_runoff_min               =   0.0000000000000E+00
(PID.TID 0000.0001) %MON exf_runoff_mean              =   4.6512708739432E-09
(PID.TID 0000.0001) %MON exf_runoff_sd                =   4.0722969529259E-08
(PID.TID 0000.0001) %MON exf_runoff_del2              =   1.1789714852047E-10
(PID.TID 0000.0001) // =======================================================
(PID.TID 0000.0001) // End MONITOR EXF statistics
(PID.TID 0000.0001) // =======================================================
 cg2d: Sum(rhs),rhsMax =  -6.59732828551249E+01  1.13977344787629E+00
(PID.TID 0000.0001)  ploadbar=  1.01135165818595E+05
 cg2d: Sum(rhs),rhsMax =  -6.60125804804438E+01  1.13949297116373E+00
(PID.TID 0000.0001)  ploadbar=  1.01133584520625E+05
 cg2d: Sum(rhs),rhsMax =  -6.60521374836470E+01  1.13922174984896E+00
(PID.TID 0000.0001)  ploadbar=  1.01132003222655E+05
 cg2d: Sum(rhs),rhsMax =  -6.60930421952127E+01  1.13894108335931E+00
(PID.TID 0000.0001)  ploadbar=  1.01130421924686E+05
 cg2d: Sum(rhs),rhsMax =  -6.60639090967342E+01  1.13988113988670E+00
(PID.TID 0000.0001)  ploadbar=  1.01127996405599E+05
 cg2d: Sum(rhs),rhsMax =  -6.60402944838428E+01  1.14073258286146E+00
(PID.TID 0000.0001)  ploadbar=  1.01125570886512E+05
 cg2d: Sum(rhs),rhsMax =  -6.60156472081539E+01  1.14160732901314E+00
(PID.TID 0000.0001)  ploadbar=  1.01123145367425E+05
 cg2d: Sum(rhs),rhsMax =  -6.59925699795965E+01  1.14245821015121E+00
(PID.TID 0000.0001)  ploadbar=  1.01120719848339E+05
 cg2d: Sum(rhs),rhsMax =  -6.59734723922436E+01  1.14324260316543E+00
(PID.TID 0000.0001)  ploadbar=  1.01118294329252E+05
 cg2d: Sum(rhs),rhsMax =  -6.59562288458714E+01  1.14399470845843E+00
(PID.TID 0000.0001)  ploadbar=  1.01115868810165E+05
 cg2d: Sum(rhs),rhsMax =  -6.59256473100530E+01  1.14493516722709E+00
(PID.TID 0000.0001)  ploadbar=  1.01113846276836E+05
 cg2d: Sum(rhs),rhsMax =  -6.58890651709970E+01  1.14593560823438E+00
(PID.TID 0000.0001)  ploadbar=  1.01111823743507E+05
 cg2d: Sum(rhs),rhsMax =  -6.58468169214062E+01  1.14699009818073E+00
(PID.TID 0000.0001)  ploadbar=  1.01109801210178E+05
 cg2d: Sum(rhs),rhsMax =  -6.57993631147778E+01  1.14809051063090E+00
(PID.TID 0000.0001)  ploadbar=  1.01107778676849E+05
 cg2d: Sum(rhs),rhsMax =  -6.57468855894694E+01  1.14924005138708E+00
(PID.TID 0000.0001)  ploadbar=  1.01105756143521E+05
 cg2d: Sum(rhs),rhsMax =  -6.01096594939260E+01  1.25723370495889E+00
(PID.TID 0000.0001)  ploadbar=  1.01103733610192E+05
 cg2d: Sum(rhs),rhsMax =  -5.34493826554882E+01  1.41423084158210E+00
(PID.TID 0000.0001)  ploadbar=  1.01101930753521E+05
 cg2d: Sum(rhs),rhsMax =  -4.75183102877536E+01  1.59122448328727E+00
(PID.TID 0000.0001)  ploadbar=  1.01100127896850E+05
 cg2d: Sum(rhs),rhsMax =  -4.37024583619546E+01  1.73078162678514E+00
(PID.TID 0000.0001)  ploadbar=  1.01098325040179E+05
 cg2d: Sum(rhs),rhsMax =  -4.07221955124231E+01  1.85822782035939E+00
(PID.TID 0000.0001)  ploadbar=  1.01096522183508E+05
 cg2d: Sum(rhs),rhsMax =  -3.83081338745486E+01  1.97627664695770E+00
(PID.TID 0000.0001)  ploadbar=  1.01094719326837E+05
 cg2d: Sum(rhs),rhsMax =  -3.63479214627347E+01  2.08398452739761E+00
(PID.TID 0000.0001)  ploadbar=  1.01092916470166E+05
 cg2d: Sum(rhs),rhsMax =  -3.47863922972183E+01  2.17869737435009E+00
(PID.TID 0000.0001)  ploadbar=  1.01092494637980E+05
 cg2d: Sum(rhs),rhsMax =  -3.34807023132750E+01  2.26485184275295E+00
(PID.TID 0000.0001)  ploadbar=  1.01092072805793E+05
 cg2d: Sum(rhs),rhsMax =  -3.24318085020038E+01  2.33931180800222E+00
(PID.TID 0000.0001)  ploadbar=  1.01091650973607E+05
 cg2d: Sum(rhs),rhsMax =  -3.15917041060899E+01  2.40275899217314E+00
(PID.TID 0000.0001)  ploadbar=  1.01091229141420E+05
 cg2d: Sum(rhs),rhsMax =  -3.09314578227615E+01  2.45531097187485E+00
(PID.TID 0000.0001)  ploadbar=  1.01090807309233E+05
 cg2d: Sum(rhs),rhsMax =  -3.04281994241677E+01  2.49719921593575E+00
(PID.TID 0000.0001)  ploadbar=  1.01090385477047E+05
 cg2d: Sum(rhs),rhsMax =  -3.00683243313453E+01  2.52837244646053E+00
(PID.TID 0000.0001)  ploadbar=  1.01090068061489E+05
 cg2d: Sum(rhs),rhsMax =  -2.97767352331676E+01  2.55440881837754E+00
(PID.TID 0000.0001)  ploadbar=  1.01089750645932E+05
 cg2d: Sum(rhs),rhsMax =  -2.95417316191922E+01  2.57599264456687E+00
(PID.TID 0000.0001)  ploadbar=  1.01089433230375E+05
 cg2d: Sum(rhs),rhsMax =  -2.93742945663482E+01  2.59192061442645E+00
(PID.TID 0000.0001)  ploadbar=  1.01089115814817E+05
 cg2d: Sum(rhs),rhsMax =  -2.92739286641787E+01  2.60202851038524E+00
(PID.TID 0000.0001)  ploadbar=  1.01088798399260E+05
 cg2d: Sum(rhs),rhsMax =  -2.92410017025913E+01  2.60615083531283E+00
(PID.TID 0000.0001)  ploadbar=  1.01088480983703E+05
 cg2d: Sum(rhs),rhsMax =  -2.92498239379380E+01  2.60636833159514E+00
(PID.TID 0000.0001)  ploadbar=  1.01088112261272E+05
 cg2d: Sum(rhs),rhsMax =  -2.93073279957905E+01  2.60206698048900E+00
(PID.TID 0000.0001)  ploadbar=  1.01087743538840E+05
 cg2d: Sum(rhs),rhsMax =  -2.94033654778839E+01  2.59419649068401E+00
(PID.TID 0000.0001)  ploadbar=  1.01087374816409E+05
 cg2d: Sum(rhs),rhsMax =  -2.95324048884387E+01  2.58331710910467E+00
(PID.TID 0000.0001)  ploadbar=  1.01087006093977E+05
 cg2d: Sum(rhs),rhsMax =  -2.97081379246555E+01  2.56832641270656E+00
(PID.TID 0000.0001)  ploadbar=  1.01086637371546E+05
 cg2d: Sum(rhs),rhsMax =  -3.00754586127404E+01  2.53709111378211E+00
(PID.TID 0000.0001)  ploadbar=  1.01086268649114E+05
 cg2d: Sum(rhs),rhsMax =  -3.05388316047490E+01  2.49881336267681E+00
(PID.TID 0000.0001)  ploadbar=  1.01086035524302E+05
 cg2d: Sum(rhs),rhsMax =  -3.10930298783001E+01  2.45457334352877E+00
(PID.TID 0000.0001)  ploadbar=  1.01085802399491E+05
 cg2d: Sum(rhs),rhsMax =  -3.17158209498305E+01  2.40674887291394E+00
(PID.TID 0000.0001)  ploadbar=  1.01085569274679E+05
 cg2d: Sum(rhs),rhsMax =  -3.24464286691000E+01  2.35300345211090E+00
(PID.TID 0000.0001)  ploadbar=  1.01085336149867E+05
 cg2d: Sum(rhs),rhsMax =  -3.32684382279781E+01  2.29538424761757E+00
(PID.TID 0000.0001)  ploadbar=  1.01085103025056E+05
 cg2d: Sum(rhs),rhsMax =  -3.40595861924713E+01  2.24265608686595E+00
(PID.TID 0000.0001)  ploadbar=  1.01084869900244E+05
 cg2d: Sum(rhs),rhsMax =  -3.48493845392157E+01  2.19234362689938E+00
(PID.TID 0000.0001)  ploadbar=  1.01085249468662E+05
 cg2d: Sum(rhs),rhsMax =  -3.56375363163177E+01  2.14429298247110E+00
(PID.TID 0000.0001)  ploadbar=  1.01085629037079E+05
 cg2d: Sum(rhs),rhsMax =  -3.64156807903460E+01  2.09883504720681E+00
(PID.TID 0000.0001)  ploadbar=  1.01086008605497E+05
 cg2d: Sum(rhs),rhsMax =  -3.69535844018578E+01  2.06857988222106E+00
(PID.TID 0000.0001)  ploadbar=  1.01086388173915E+05
 cg2d: Sum(rhs),rhsMax =  -3.73606815072824E+01  2.04627650547157E+00
(PID.TID 0000.0001)  ploadbar=  1.01086767742332E+05
 cg2d: Sum(rhs),rhsMax =  -3.79126520870952E+01  2.01666314325700E+00
(PID.TID 0000.0001)  ploadbar=  1.01087147310750E+05
 cg2d: Sum(rhs),rhsMax =  -3.84533921334315E+01  1.98850694729686E+00
(PID.TID 0000.0001)  ploadbar=  1.01087972061712E+05
 cg2d: Sum(rhs),rhsMax =  -3.83950387885380E+01  1.99174472637458E+00
(PID.TID 0000.0001)  ploadbar=  1.01088796812674E+05
 cg2d: Sum(rhs),rhsMax =  -3.83463464410764E+01  1.99450067687057E+00
(PID.TID 0000.0001)  ploadbar=  1.01089621563636E+05
 cg2d: Sum(rhs),rhsMax =  -3.83447450806474E+01  1.99482362305597E+00
(PID.TID 0000.0001)  ploadbar=  1.01090446314598E+05
 cg2d: Sum(rhs),rhsMax =  -3.83589303587302E+01  1.99434228995722E+00
(PID.TID 0000.0001)  ploadbar=  1.01091271065560E+05
 cg2d: Sum(rhs),rhsMax =  -3.84012195156914E+01  1.99241858605382E+00
(PID.TID 0000.0001)  ploadbar=  1.01092095816521E+05
 cg2d: Sum(rhs),rhsMax =  -3.84118917096921E+01  1.99203789976289E+00
(PID.TID 0000.0001)  ploadbar=  1.01092457622035E+05
 cg2d: Sum(rhs),rhsMax =  -3.83887283529720E+01  1.99330431162435E+00
(PID.TID 0000.0001)  ploadbar=  1.01092819427548E+05
 cg2d: Sum(rhs),rhsMax =  -3.83339012137083E+01  1.99611279765153E+00
(PID.TID 0000.0001)  ploadbar=  1.01093181233061E+05
 cg2d: Sum(rhs),rhsMax =  -3.82373842760987E+01  2.00100320466515E+00
(PID.TID 0000.0001)  ploadbar=  1.01093543038574E+05
 cg2d: Sum(rhs),rhsMax =  -3.81259868575892E+01  2.00660179444406E+00
(PID.TID 0000.0001)  ploadbar=  1.01093904844088E+05
 cg2d: Sum(rhs),rhsMax =  -3.80067395339704E+01  2.01255564933366E+00
(PID.TID 0000.0001)  ploadbar=  1.01094266649601E+05
 cg2d: Sum(rhs),rhsMax =  -3.78986767492232E+01  2.01809276054673E+00
(PID.TID 0000.0001)  ploadbar=  1.01093969936669E+05
 cg2d: Sum(rhs),rhsMax =  -3.78086339497413E+01  2.02282758314531E+00
(PID.TID 0000.0001)  ploadbar=  1.01093673223737E+05
 cg2d: Sum(rhs),rhsMax =  -3.77422598557214E+01  2.02644388647409E+00
(PID.TID 0000.0001)  ploadbar=  1.01093376510805E+05
 cg2d: Sum(rhs),rhsMax =  -3.77068655212356E+01  2.02853695862372E+00
(PID.TID 0000.0001)  ploadbar=  1.01093079797873E+05
 cg2d: Sum(rhs),rhsMax =  -3.77071110324619E+01  2.02884589407945E+00
(PID.TID 0000.0001)  ploadbar=  1.01092783084941E+05
 cg2d: Sum(rhs),rhsMax =  -3.77416094625438E+01  2.02744397304199E+00
(PID.TID 0000.0001)  ploadbar=  1.01092486372009E+05
 cg2d: Sum(rhs),rhsMax =  -3.78027790447893E+01  2.02462079703365E+00
(PID.TID 0000.0001)  ploadbar=  1.01092940804430E+05
 cg2d: Sum(rhs),rhsMax =  -3.78963197042880E+01  2.02007881291964E+00
(PID.TID 0000.0001)  ploadbar=  1.01093395236851E+05
 cg2d: Sum(rhs),rhsMax =  -3.80169328316641E+01  2.01412468248512E+00
(PID.TID 0000.0001)  ploadbar=  1.01093849669272E+05
 cg2d: Sum(rhs),rhsMax =  -3.81550126114148E+01  2.00729571193873E+00
(PID.TID 0000.0001)  ploadbar=  1.01094304101693E+05
 cg2d: Sum(rhs),rhsMax =  -3.83042462666026E+01  1.99994258884252E+00
(PID.TID 0000.0001)  ploadbar=  1.01094758534114E+05
 cg2d: Sum(rhs),rhsMax =  -3.84566166864989E+01  1.99249987534222E+00
(PID.TID 0000.0001)  ploadbar=  1.01095212966534E+05
 cg2d: Sum(rhs),rhsMax =  -3.85845334767501E+01  1.98646206130131E+00
(PID.TID 0000.0001)  ploadbar=  1.01096361813528E+05
 cg2d: Sum(rhs),rhsMax =  -3.87010940909576E+01  1.98112343132291E+00
(PID.TID 0000.0001)  ploadbar=  1.01097510660522E+05
 cg2d: Sum(rhs),rhsMax =  -3.88285001592294E+01  1.97534202417327E+00
(PID.TID 0000.0001)  ploadbar=  1.01098659507516E+05
 cg2d: Sum(rhs),rhsMax =  -3.89551609212857E+01  1.96971672173010E+00
(PID.TID 0000.0001)  ploadbar=  1.01099808354509E+05
 cg2d: Sum(rhs),rhsMax =  -3.91332414580994E+01  1.96163269183084E+00
(PID.TID 0000.0001)  ploadbar=  1.01100957201503E+05
 cg2d: Sum(rhs),rhsMax =  -3.93606433569365E+01  1.95126923146202E+00
(PID.TID 0000.0001)  ploadbar=  1.01102106048497E+05
 cg2d: Sum(rhs),rhsMax =  -3.96317405983809E+01  1.93873052019629E+00
(PID.TID 0000.0001)  ploadbar=  1.01102552006912E+05
 cg2d: Sum(rhs),rhsMax =  -3.99838878443764E+01  1.92229441293564E+00
(PID.TID 0000.0001)  ploadbar=  1.01102997965326E+05
 cg2d: Sum(rhs),rhsMax =  -4.04288619417472E+01  1.90160840966915E+00
(PID.TID 0000.0001)  ploadbar=  1.01103443923741E+05
 cg2d: Sum(rhs),rhsMax =  -4.09582141986246E+01  1.87734080946169E+00
(PID.TID 0000.0001)  ploadbar=  1.01103889882156E+05
 cg2d: Sum(rhs),rhsMax =  -4.15679542023072E+01  1.84995922395646E+00
(PID.TID 0000.0001)  ploadbar=  1.01104335840571E+05
 cg2d: Sum(rhs),rhsMax =  -4.22555885263044E+01  1.81986139949504E+00
(PID.TID 0000.0001)  ploadbar=  1.01104781798986E+05
 cg2d: Sum(rhs),rhsMax =  -4.30411382718124E+01  1.78671658040669E+00
(PID.TID 0000.0001)  ploadbar=  1.01104262247216E+05
 cg2d: Sum(rhs),rhsMax =  -4.39255094136663E+01  1.75087279225011E+00
(PID.TID 0000.0001)  ploadbar=  1.01103742695446E+05
 cg2d: Sum(rhs),rhsMax =  -4.48948855663802E+01  1.71325582798707E+00
(PID.TID 0000.0001)  ploadbar=  1.01103223143676E+05
 cg2d: Sum(rhs),rhsMax =  -4.59189984874561E+01  1.67529211471152E+00
(PID.TID 0000.0001)  ploadbar=  1.01102703591906E+05
 cg2d: Sum(rhs),rhsMax =  -4.69566057588461E+01  1.63858211508496E+00
(PID.TID 0000.0001)  ploadbar=  1.01102184040136E+05
 cg2d: Sum(rhs),rhsMax =  -4.79586402036023E+01  1.60472646661070E+00
(PID.TID 0000.0001)  ploadbar=  1.01101664488366E+05
 cg2d: Sum(rhs),rhsMax =  -4.88955136395165E+01  1.57433505744887E+00
(PID.TID 0000.0001)  ploadbar=  1.01100879470202E+05
 cg2d: Sum(rhs),rhsMax =  -4.97016739820258E+01  1.54912678428107E+00
(PID.TID 0000.0001)  ploadbar=  1.01100094452038E+05
 cg2d: Sum(rhs),rhsMax =  -5.03378820791108E+01  1.52985405716269E+00
(PID.TID 0000.0001)  ploadbar=  1.01099309433874E+05
 cg2d: Sum(rhs),rhsMax =  -5.07856199406393E+01  1.51666068693814E+00
(PID.TID 0000.0001)  ploadbar=  1.01098524415710E+05
 cg2d: Sum(rhs),rhsMax =  -5.10542102174508E+01  1.50897166607121E+00
(PID.TID 0000.0001)  ploadbar=  1.01097739397546E+05
 cg2d: Sum(rhs),rhsMax =  -5.11808859253122E+01  1.50552459287934E+00
(PID.TID 0000.0001)  ploadbar=  1.01096954379382E+05
 cg2d: Sum(rhs),rhsMax =  -5.12224428943591E+01  1.50464971234587E+00
(PID.TID 0000.0001)  ploadbar=  1.01097866247728E+05
 cg2d: Sum(rhs),rhsMax =  -5.11987727667533E+01  1.50574260985628E+00
(PID.TID 0000.0001)  ploadbar=  1.01098778116075E+05
 cg2d: Sum(rhs),rhsMax =  -5.11501863086086E+01  1.50762487865404E+00
(PID.TID 0000.0001)  ploadbar=  1.01099689984422E+05
 cg2d: Sum(rhs),rhsMax =  -5.13311016049973E+01  1.50281759209780E+00
(PID.TID 0000.0001)  ploadbar=  1.01100601852769E+05
 cg2d: Sum(rhs),rhsMax =  -5.15378339253360E+01  1.49735029806713E+00
(PID.TID 0000.0001)  ploadbar=  1.01101513721115E+05
 cg2d: Sum(rhs),rhsMax =  -5.17783346921004E+01  1.49101345711749E+00
(PID.TID 0000.0001)  ploadbar=  1.01102425589462E+05
 cg2d: Sum(rhs),rhsMax =  -5.20435401297922E+01  1.48396924637231E+00
(PID.TID 0000.0001)  ploadbar=  1.01101447620318E+05
 cg2d: Sum(rhs),rhsMax =  -5.23386401071933E+01  1.47609029033030E+00
(PID.TID 0000.0001)  ploadbar=  1.01100469651175E+05
 cg2d: Sum(rhs),rhsMax =  -5.26588669634363E+01  1.46753942768281E+00
(PID.TID 0000.0001)  ploadbar=  1.01099491682031E+05
 cg2d: Sum(rhs),rhsMax =  -5.29806159415529E+01  1.45899284642678E+00
(PID.TID 0000.0001)  ploadbar=  1.01098513712888E+05
 cg2d: Sum(rhs),rhsMax =  -5.23312879603246E+01  1.47741191423630E+00
(PID.TID 0000.0001)  ploadbar=  1.01097535743744E+05
 cg2d: Sum(rhs),rhsMax =  -5.14027982460738E+01  1.50436739502476E+00
(PID.TID 0000.0001)  ploadbar=  1.01096557774600E+05
 cg2d: Sum(rhs),rhsMax =  -5.05785618159234E+01  1.52920250644274E+00
(PID.TID 0000.0001)  ploadbar=  1.01095417408052E+05
 cg2d: Sum(rhs),rhsMax =  -4.98170950766534E+01  1.55293863907213E+00
(PID.TID 0000.0001)  ploadbar=  1.01094277041504E+05
 cg2d: Sum(rhs),rhsMax =  -4.90981067150054E+01  1.57608505126296E+00
(PID.TID 0000.0001)  ploadbar=  1.01093136674955E+05
 cg2d: Sum(rhs),rhsMax =  -4.84625266715231E+01  1.59720327985655E+00
(PID.TID 0000.0001)  ploadbar=  1.01091996308407E+05
 cg2d: Sum(rhs),rhsMax =  -4.78979065716693E+01  1.61652601378706E+00
(PID.TID 0000.0001)  ploadbar=  1.01090855941858E+05
 cg2d: Sum(rhs),rhsMax =  -4.73835242294584E+01  1.63462011436306E+00
(PID.TID 0000.0001)  ploadbar=  1.01089715575310E+05
 cg2d: Sum(rhs),rhsMax =  -4.69438154531223E+01  1.65043519338627E+00
(PID.TID 0000.0001)  ploadbar=  1.01088917077108E+05
 cg2d: Sum(rhs),rhsMax =  -4.65642855944473E+01  1.66434605398293E+00
(PID.TID 0000.0001)  ploadbar=  1.01088118578906E+05
 cg2d: Sum(rhs),rhsMax =  -4.62580353138439E+01  1.67578278135960E+00
(PID.TID 0000.0001)  ploadbar=  1.01087320080703E+05
 cg2d: Sum(rhs),rhsMax =  -4.60141675450147E+01  1.68504609216452E+00
(PID.TID 0000.0001)  ploadbar=  1.01086521582501E+05
 cg2d: Sum(rhs),rhsMax =  -4.58338662395010E+01  1.69202482577327E+00
(PID.TID 0000.0001)  ploadbar=  1.01085723084299E+05
 cg2d: Sum(rhs),rhsMax =  -4.57241355410133E+01  1.69640682148280E+00
(PID.TID 0000.0001)  ploadbar=  1.01084924586097E+05
 cg2d: Sum(rhs),rhsMax =  -4.58649685292060E+01  1.69156558493273E+00
(PID.TID 0000.0001)  ploadbar=  1.01084589394568E+05
 cg2d: Sum(rhs),rhsMax =  -4.61454351779893E+01  1.68168951668135E+00
(PID.TID 0000.0001)  ploadbar=  1.01084254203040E+05
 cg2d: Sum(rhs),rhsMax =  -4.65374455224038E+01  1.66796568419729E+00
(PID.TID 0000.0001)  ploadbar=  1.01083919011511E+05
 cg2d: Sum(rhs),rhsMax =  -4.69957067832571E+01  1.65218156128954E+00
(PID.TID 0000.0001)  ploadbar=  1.01083583819983E+05
 cg2d: Sum(rhs),rhsMax =  -4.70135156578515E+01  1.65207948288621E+00
(PID.TID 0000.0001)  ploadbar=  1.01083248628454E+05
 cg2d: Sum(rhs),rhsMax =  -4.70088560365055E+01  1.65281695926151E+00
(PID.TID 0000.0001)  ploadbar=  1.01082913436926E+05
 cg2d: Sum(rhs),rhsMax =  -4.70604896760577E+01  1.65148037179261E+00
(PID.TID 0000.0001)  ploadbar=  1.01082497616806E+05
 cg2d: Sum(rhs),rhsMax =  -4.71370275098246E+01  1.64916748833969E+00
(PID.TID 0000.0001)  ploadbar=  1.01082081796687E+05
 cg2d: Sum(rhs),rhsMax =  -4.72670310280845E+01  1.64489563553962E+00
(PID.TID 0000.0001)  ploadbar=  1.01081665976568E+05
 cg2d: Sum(rhs),rhsMax =  -4.74059276821784E+01  1.64024200619419E+00
(PID.TID 0000.0001)  ploadbar=  1.01081250156449E+05
 cg2d: Sum(rhs),rhsMax =  -4.75314621971557E+01  1.63598185891131E+00
(PID.TID 0000.0001)  ploadbar=  1.01080834336329E+05
 cg2d: Sum(rhs),rhsMax =  -4.76543497561849E+01  1.63174044300601E+00
(PID.TID 0000.0001)  ploadbar=  1.01080418516210E+05
 cg2d: Sum(rhs),rhsMax =  -4.77825955710463E+01  1.62745467192736E+00
(PID.TID 0000.0001)  ploadbar=  1.01079408454039E+05
 cg2d: Sum(rhs),rhsMax =  -4.79294131724125E+01  1.62266774074063E+00
(PID.TID 0000.0001)  ploadbar=  1.01078398391868E+05
 cg2d: Sum(rhs),rhsMax =  -4.80655270587091E+01  1.61837218912223E+00
(PID.TID 0000.0001)  ploadbar=  1.01077388329697E+05
 cg2d: Sum(rhs),rhsMax =  -4.81967048702543E+01  1.61437058869754E+00
(PID.TID 0000.0001)  ploadbar=  1.01076378267526E+05
 cg2d: Sum(rhs),rhsMax =  -4.83285848525959E+01  1.61047761176077E+00
(PID.TID 0000.0001)  ploadbar=  1.01075368205355E+05
 cg2d: Sum(rhs),rhsMax =  -4.84637822826978E+01  1.60660674457807E+00
(PID.TID 0000.0001)  ploadbar=  1.01074358143184E+05
 cg2d: Sum(rhs),rhsMax =  -4.85771307904528E+01  1.60343252034755E+00
(PID.TID 0000.0001)  ploadbar=  1.01074003273582E+05
 cg2d: Sum(rhs),rhsMax =  -4.87024856589095E+01  1.59982888797709E+00
(PID.TID 0000.0001)  ploadbar=  1.01073648403980E+05
 cg2d: Sum(rhs),rhsMax =  -4.88219053621589E+01  1.59639389363384E+00
(PID.TID 0000.0001)  ploadbar=  1.01073293534379E+05
 cg2d: Sum(rhs),rhsMax =  -4.89332529961757E+01  1.59319996504213E+00
(PID.TID 0000.0001)  ploadbar=  1.01072938664777E+05
 cg2d: Sum(rhs),rhsMax =  -4.90431487417985E+01  1.59003753678787E+00
(PID.TID 0000.0001)  ploadbar=  1.01072583795175E+05
 cg2d: Sum(rhs),rhsMax =  -4.91467288038739E+01  1.58706617429168E+00
(PID.TID 0000.0001)  ploadbar=  1.01072228925573E+05
 cg2d: Sum(rhs),rhsMax =  -4.92565815051949E+01  1.58396063365436E+00
(PID.TID 0000.0001)  ploadbar=  1.01071869444184E+05
 cg2d: Sum(rhs),rhsMax =  -4.93655382841512E+01  1.58094382126498E+00
(PID.TID 0000.0001)  ploadbar=  1.01071509962796E+05
 cg2d: Sum(rhs),rhsMax =  -4.94651182990473E+01  1.57828332738822E+00
(PID.TID 0000.0001)  ploadbar=  1.01071150481408E+05
 cg2d: Sum(rhs),rhsMax =  -4.95552852874953E+01  1.57597948038633E+00
(PID.TID 0000.0001)  ploadbar=  1.01070791000019E+05
 cg2d: Sum(rhs),rhsMax =  -4.96379079515212E+01  1.57397021522956E+00
(PID.TID 0000.0001)  ploadbar=  1.01070431518631E+05
 cg2d: Sum(rhs),rhsMax =  -4.97166456153777E+01  1.57214016993543E+00
(PID.TID 0000.0001)  ploadbar=  1.01070072037242E+05
 cg2d: Sum(rhs),rhsMax =  -4.97685233814570E+01  1.57104767593546E+00
(PID.TID 0000.0001)  ploadbar=  1.01070701613366E+05
 cg2d: Sum(rhs),rhsMax =  -4.98179716781503E+01  1.56991407434720E+00
(PID.TID 0000.0001)  ploadbar=  1.01071331189489E+05
 cg2d: Sum(rhs),rhsMax =  -4.98625963770009E+01  1.56881927351324E+00
(PID.TID 0000.0001)  ploadbar=  1.01071960765612E+05
 cg2d: Sum(rhs),rhsMax =  -4.99024414494922E+01  1.56776707522316E+00
(PID.TID 0000.0001)  ploadbar=  1.01072590341736E+05
 cg2d: Sum(rhs),rhsMax =  -4.99369048087867E+01  1.56678363694536E+00
(PID.TID 0000.0001)  ploadbar=  1.01073219917859E+05
 cg2d: Sum(rhs),rhsMax =  -4.99637043711047E+01  1.56593458231585E+00
(PID.TID 0000.0001)  ploadbar=  1.01073849493982E+05
 cg2d: Sum(rhs),rhsMax =  -4.99895696744834E+01  1.56520288245517E+00
(PID.TID 0000.0001)  ploadbar=  1.01076294616213E+05
 cg2d: Sum(rhs),rhsMax =  -4.99856629126522E+01  1.56548580328748E+00
(PID.TID 0000.0001)  ploadbar=  1.01078739738443E+05
 cg2d: Sum(rhs),rhsMax =  -4.98912741723348E+01  1.56868983774598E+00
(PID.TID 0000.0001)  ploadbar=  1.01081184860674E+05
 cg2d: Sum(rhs),rhsMax =  -4.97710214567510E+01  1.57280789826452E+00
(PID.TID 0000.0001)  ploadbar=  1.01083629982904E+05
 cg2d: Sum(rhs),rhsMax =  -4.96423744922464E+01  1.57729637667750E+00
(PID.TID 0000.0001)  ploadbar=  1.01086075105135E+05
 cg2d: Sum(rhs),rhsMax =  -4.95208197392955E+01  1.58167038375095E+00
(PID.TID 0000.0001)  ploadbar=  1.01088520227365E+05
 cg2d: Sum(rhs),rhsMax =  -4.94096198775914E+01  1.58571050242424E+00
(PID.TID 0000.0001)  ploadbar=  1.01089976672272E+05
 cg2d: Sum(rhs),rhsMax =  -4.92992209331042E+01  1.58971830977512E+00
(PID.TID 0000.0001)  ploadbar=  1.01091433117179E+05
 cg2d: Sum(rhs),rhsMax =  -4.91902460846977E+01  1.59367559883524E+00
(PID.TID 0000.0001)  ploadbar=  1.01092889562086E+05
 cg2d: Sum(rhs),rhsMax =  -4.90839656344147E+01  1.59755007512176E+00
(PID.TID 0000.0001)  ploadbar=  1.01094346006994E+05
 cg2d: Sum(rhs),rhsMax =  -4.89815734627700E+01  1.60131966158759E+00
(PID.TID 0000.0001)  ploadbar=  1.01095802451901E+05
 cg2d: Sum(rhs),rhsMax =  -4.88833335908013E+01  1.60497914428106E+00
(PID.TID 0000.0001)  ploadbar=  1.01097258896808E+05
 cg2d: Sum(rhs),rhsMax =  -4.88064854339097E+01  1.60795199347944E+00
(PID.TID 0000.0001)  ploadbar=  1.01098826128281E+05
 cg2d: Sum(rhs),rhsMax =  -4.87377687960262E+01  1.61065898274681E+00
(PID.TID 0000.0001)  ploadbar=  1.01100393359753E+05
 cg2d: Sum(rhs),rhsMax =  -4.86818310303888E+01  1.61294749324197E+00
(PID.TID 0000.0001)  ploadbar=  1.01101960591226E+05
 cg2d: Sum(rhs),rhsMax =  -4.86370754112120E+01  1.61487297321013E+00
(PID.TID 0000.0001)  ploadbar=  1.01103527822699E+05
 cg2d: Sum(rhs),rhsMax =  -4.86036071544857E+01  1.61643567135658E+00
(PID.TID 0000.0001)  ploadbar=  1.01105095054172E+05
 cg2d: Sum(rhs),rhsMax =  -4.85824703063285E+01  1.61760418881315E+00
(PID.TID 0000.0001)  ploadbar=  1.01106662285644E+05
 cg2d: Sum(rhs),rhsMax =  -4.85450668356636E+01  1.61923157234900E+00
(PID.TID 0000.0001)  ploadbar=  1.01107711162489E+05
 cg2d: Sum(rhs),rhsMax =  -4.84919757332339E+01  1.62129389740046E+00
(PID.TID 0000.0001)  ploadbar=  1.01108760039333E+05
 cg2d: Sum(rhs),rhsMax =  -4.84167096070069E+01  1.62401266684333E+00
(PID.TID 0000.0001)  ploadbar=  1.01109808916177E+05
 cg2d: Sum(rhs),rhsMax =  -4.83156405119978E+01  1.62752212424508E+00
(PID.TID 0000.0001)  ploadbar=  1.01110857793021E+05
 cg2d: Sum(rhs),rhsMax =  -4.81897662532114E+01  1.63180334937240E+00
(PID.TID 0000.0001)  ploadbar=  1.01111906669866E+05
 cg2d: Sum(rhs),rhsMax =  -4.80388482325010E+01  1.63687729538683E+00
(PID.TID 0000.0001)  ploadbar=  1.01112955546710E+05
 cg2d: Sum(rhs),rhsMax =  -4.78949622054550E+01  1.64180667267698E+00
(PID.TID 0000.0001)  ploadbar=  1.01114218170926E+05
 cg2d: Sum(rhs),rhsMax =  -4.77611071185913E+01  1.64647538852986E+00
(PID.TID 0000.0001)  ploadbar=  1.01115480795141E+05
 cg2d: Sum(rhs),rhsMax =  -4.76447357293125E+01  1.65061727936102E+00
(PID.TID 0000.0001)  ploadbar=  1.01116743419357E+05
 cg2d: Sum(rhs),rhsMax =  -4.75509033353787E+01  1.65404275183504E+00
(PID.TID 0000.0001)  ploadbar=  1.01118006043573E+05
 cg2d: Sum(rhs),rhsMax =  -4.74871137361599E+01  1.65647611034431E+00
(PID.TID 0000.0001)  ploadbar=  1.01119268667788E+05
 cg2d: Sum(rhs),rhsMax =  -4.74570133576498E+01  1.65777970877629E+00
(PID.TID 0000.0001)  ploadbar=  1.01120531292004E+05
 cg2d: Sum(rhs),rhsMax =  -4.74959668917184E+01  1.65665747906214E+00
(PID.TID 0000.0001)  ploadbar=  1.01120968236858E+05
 cg2d: Sum(rhs),rhsMax =  -4.75809183414941E+01  1.65392599787768E+00
(PID.TID 0000.0001)  ploadbar=  1.01121405181711E+05
 cg2d: Sum(rhs),rhsMax =  -4.76908224985282E+01  1.65033933851177E+00
(PID.TID 0000.0001)  ploadbar=  1.01121842126565E+05
 cg2d: Sum(rhs),rhsMax =  -4.78317450163874E+01  1.64571111597175E+00
(PID.TID 0000.0001)  ploadbar=  1.01122279071418E+05
 cg2d: Sum(rhs),rhsMax =  -4.80044181129522E+01  1.64003878539741E+00
(PID.TID 0000.0001)  ploadbar=  1.01122716016272E+05
 cg2d: Sum(rhs),rhsMax =  -4.79152201813944E+01  1.64335328876455E+00
(PID.TID 0000.0001)  ploadbar=  1.01123152961125E+05
 cg2d: Sum(rhs),rhsMax =  -4.75162232705803E+01  1.65745964924086E+00
(PID.TID 0000.0001)  ploadbar=  1.01123125084198E+05
 cg2d: Sum(rhs),rhsMax =  -4.71632430515105E+01  1.67020464756118E+00
(PID.TID 0000.0001)  ploadbar=  1.01123097207271E+05
 cg2d: Sum(rhs),rhsMax =  -4.68491041056814E+01  1.68177698986639E+00
(PID.TID 0000.0001)  ploadbar=  1.01123069330344E+05
 cg2d: Sum(rhs),rhsMax =  -4.65732390605672E+01  1.69214789271341E+00
(PID.TID 0000.0001)  ploadbar=  1.01123041453417E+05
 cg2d: Sum(rhs),rhsMax =  -4.63295634814730E+01  1.70149900969044E+00
(PID.TID 0000.0001)  ploadbar=  1.01123013576490E+05
 cg2d: Sum(rhs),rhsMax =  -4.61082542492977E+01  1.71015886911057E+00
(PID.TID 0000.0001)  ploadbar=  1.01122985699563E+05
 cg2d: Sum(rhs),rhsMax =  -4.58961341950482E+01  1.71850963761589E+00
(PID.TID 0000.0001)  ploadbar=  1.01123429544169E+05
 cg2d: Sum(rhs),rhsMax =  -4.57071881621134E+01  1.72600391761218E+00
(PID.TID 0000.0001)  ploadbar=  1.01123873388774E+05
 cg2d: Sum(rhs),rhsMax =  -4.55446952556835E+01  1.73249566372063E+00
(PID.TID 0000.0001)  ploadbar=  1.01124317233380E+05
 cg2d: Sum(rhs),rhsMax =  -4.54360263935603E+01  1.73691879633711E+00
(PID.TID 0000.0001)  ploadbar=  1.01124761077985E+05
 cg2d: Sum(rhs),rhsMax =  -4.53930154659510E+01  1.73879613201002E+00
(PID.TID 0000.0001)  ploadbar=  1.01125204922591E+05
 cg2d: Sum(rhs),rhsMax =  -4.54063354476184E+01  1.73847520327298E+00
(PID.TID 0000.0001)  ploadbar=  1.01125648767196E+05
 cg2d: Sum(rhs),rhsMax =  -4.54534602296142E+01  1.73692784880215E+00
(PID.TID 0000.0001)  ploadbar=  1.01126114728581E+05
 cg2d: Sum(rhs),rhsMax =  -4.55192387872215E+01  1.73473196208717E+00
(PID.TID 0000.0001)  ploadbar=  1.01126580689967E+05
 cg2d: Sum(rhs),rhsMax =  -4.55929298782987E+01  1.73230195378873E+00
(PID.TID 0000.0001)  ploadbar=  1.01127046651352E+05
 cg2d: Sum(rhs),rhsMax =  -4.56741289420839E+01  1.72965531893533E+00
(PID.TID 0000.0001)  ploadbar=  1.01127512612738E+05
 cg2d: Sum(rhs),rhsMax =  -4.57641173825071E+01  1.72674682643388E+00
(PID.TID 0000.0001)  ploadbar=  1.01127978574123E+05
 cg2d: Sum(rhs),rhsMax =  -4.58587683955544E+01  1.72373303967225E+00
(PID.TID 0000.0001)  ploadbar=  1.01128444535509E+05
 cg2d: Sum(rhs),rhsMax =  -4.59430383024996E+01  1.72110363706820E+00
(PID.TID 0000.0001)  ploadbar=  1.01127869212134E+05
 cg2d: Sum(rhs),rhsMax =  -4.60233997182457E+01  1.71861591809849E+00
(PID.TID 0000.0001)  ploadbar=  1.01127293888759E+05
 cg2d: Sum(rhs),rhsMax =  -4.60971022007556E+01  1.71637936096600E+00
(PID.TID 0000.0001)  ploadbar=  1.01126718565384E+05
 cg2d: Sum(rhs),rhsMax =  -4.61648956412336E+01  1.71436775048116E+00
(PID.TID 0000.0001)  ploadbar=  1.01126143242010E+05
 cg2d: Sum(rhs),rhsMax =  -4.62263485719887E+01  1.71259877422096E+00
(PID.TID 0000.0001)  ploadbar=  1.01125567918635E+05
 cg2d: Sum(rhs),rhsMax =  -4.62801020995148E+01  1.71112357257618E+00
(PID.TID 0000.0001)  ploadbar=  1.01124992595260E+05
 cg2d: Sum(rhs),rhsMax =  -4.63043132534079E+01  1.71081246509655E+00
(PID.TID 0000.0001)  ploadbar=  1.01123889703643E+05
 cg2d: Sum(rhs),rhsMax =  -4.63157957888915E+01  1.71103643055516E+00
(PID.TID 0000.0001)  ploadbar=  1.01122786812026E+05
 cg2d: Sum(rhs),rhsMax =  -4.63093096647460E+01  1.71199622266584E+00
(PID.TID 0000.0001)  ploadbar=  1.01121683920409E+05
 cg2d: Sum(rhs),rhsMax =  -4.62829408783925E+01  1.71376564445122E+00
(PID.TID 0000.0001)  ploadbar=  1.01120581028792E+05
 cg2d: Sum(rhs),rhsMax =  -4.62366297929398E+01  1.71634675497632E+00
(PID.TID 0000.0001)  ploadbar=  1.01119478137175E+05
 cg2d: Sum(rhs),rhsMax =  -4.52984856863365E+01  1.75284941483425E+00
(PID.TID 0000.0001)  ploadbar=  1.01118375245558E+05
 cg2d: Sum(rhs),rhsMax =  -4.41737966266585E+01  1.79837919009602E+00
(PID.TID 0000.0001)  ploadbar=  1.01117530520058E+05
 cg2d: Sum(rhs),rhsMax =  -4.29656559780495E+01  1.84978312192235E+00
(PID.TID 0000.0001)  ploadbar=  1.01116685794558E+05
 cg2d: Sum(rhs),rhsMax =  -4.18315399552473E+01  1.90070187937302E+00
(PID.TID 0000.0001)  ploadbar=  1.01115841069058E+05
 cg2d: Sum(rhs),rhsMax =  -4.08047931492534E+01  1.94922641850860E+00
(PID.TID 0000.0001)  ploadbar=  1.01114996343558E+05
 cg2d: Sum(rhs),rhsMax =  -3.98635542906735E+01  1.99587798102163E+00
(PID.TID 0000.0001)  ploadbar=  1.01114151618058E+05
 cg2d: Sum(rhs),rhsMax =  -3.89979264468749E+01  2.04073559775441E+00
(PID.TID 0000.0001)  ploadbar=  1.01113306892558E+05
 cg2d: Sum(rhs),rhsMax =  -3.82099588801523E+01  2.08350101605112E+00
(PID.TID 0000.0001)  ploadbar=  1.01113344777367E+05
 cg2d: Sum(rhs),rhsMax =  -3.74917180731630E+01  2.12421848930710E+00
(PID.TID 0000.0001)  ploadbar=  1.01113382662175E+05
 cg2d: Sum(rhs),rhsMax =  -3.67541934872040E+01  2.16777244761350E+00
(PID.TID 0000.0001)  ploadbar=  1.01113420546984E+05
 cg2d: Sum(rhs),rhsMax =  -3.59665688639070E+01  2.21630370093648E+00
(PID.TID 0000.0001)  ploadbar=  1.01113458431793E+05
 cg2d: Sum(rhs),rhsMax =  -3.51678441477181E+01  2.26783417220805E+00
(PID.TID 0000.0001)  ploadbar=  1.01113496316602E+05
 cg2d: Sum(rhs),rhsMax =  -3.43854688581583E+01  2.32077528140819E+00
(PID.TID 0000.0001)  ploadbar=  1.01113534201411E+05
 cg2d: Sum(rhs),rhsMax =  -3.32486216790014E+01  2.40143672880542E+00
(PID.TID 0000.0001)  ploadbar=  1.01114002183040E+05
 cg2d: Sum(rhs),rhsMax =  -3.17562397013547E+01  2.51558884039087E+00
(PID.TID 0000.0001)  ploadbar=  1.01114470164668E+05
 cg2d: Sum(rhs),rhsMax =  -3.01674606074832E+01  2.64937503858380E+00
(PID.TID 0000.0001)  ploadbar=  1.01114938146297E+05
 cg2d: Sum(rhs),rhsMax =  -2.85940233737100E+01  2.79647823247837E+00
(PID.TID 0000.0001)  ploadbar=  1.01115406127926E+05
 cg2d: Sum(rhs),rhsMax =  -2.71515595476251E+01  2.94638192435357E+00
(PID.TID 0000.0001)  ploadbar=  1.01115874109554E+05
 cg2d: Sum(rhs),rhsMax =  -2.59178279514490E+01  3.08798401021955E+00
(PID.TID 0000.0001)  ploadbar=  1.01116342091183E+05
 cg2d: Sum(rhs),rhsMax =  -2.47956026105203E+01  3.22917843750668E+00
(PID.TID 0000.0001)  ploadbar=  1.01116283101739E+05
 cg2d: Sum(rhs),rhsMax =  -2.37479682039735E+01  3.37314838707318E+00
(PID.TID 0000.0001)  ploadbar=  1.01116224112295E+05
 cg2d: Sum(rhs),rhsMax =  -2.28188847089811E+01  3.51209935195949E+00
(PID.TID 0000.0001)  ploadbar=  1.01116165122852E+05
 cg2d: Sum(rhs),rhsMax =  -2.19936703431878E+01  3.64559896147667E+00
(PID.TID 0000.0001)  ploadbar=  1.01116106133408E+05
 cg2d: Sum(rhs),rhsMax =  -2.12565485407662E+01  3.77386866715527E+00
(PID.TID 0000.0001)  ploadbar=  1.01116047143965E+05
 cg2d: Sum(rhs),rhsMax =  -2.05919423358178E+01  3.89765415558687E+00
(PID.TID 0000.0001)  ploadbar=  1.01115988154521E+05
 cg2d: Sum(rhs),rhsMax =  -1.99418490098394E+01  4.02650777396300E+00
(PID.TID 0000.0001)  ploadbar=  1.01116445435245E+05
 cg2d: Sum(rhs),rhsMax =  -1.93122145650396E+01  4.15934911910566E+00
(PID.TID 0000.0001)  ploadbar=  1.01116902715969E+05
 cg2d: Sum(rhs),rhsMax =  -1.87454011140255E+01  4.28644556187578E+00
(PID.TID 0000.0001)  ploadbar=  1.01117359996694E+05
 cg2d: Sum(rhs),rhsMax =  -1.87948831347570E+01  4.27622136704339E+00
(PID.TID 0000.0001)  ploadbar=  1.01117817277418E+05
 cg2d: Sum(rhs),rhsMax =  -1.90871185057871E+01  4.21153997504125E+00
(PID.TID 0000.0001)  ploadbar=  1.01118274558142E+05
 cg2d: Sum(rhs),rhsMax =  -1.95010305326748E+01  4.12268236714345E+00
(PID.TID 0000.0001)  ploadbar=  1.01118731838866E+05
 cg2d: Sum(rhs),rhsMax =  -1.99454409273618E+01  4.03159592622190E+00
(PID.TID 0000.0001)  ploadbar=  1.01118599986065E+05
 cg2d: Sum(rhs),rhsMax =  -2.03912342413074E+01  3.94445890713131E+00
(PID.TID 0000.0001)  ploadbar=  1.01118468133263E+05
 cg2d: Sum(rhs),rhsMax =  -2.08059701670436E+01  3.86705923420191E+00
(PID.TID 0000.0001)  ploadbar=  1.01118336280462E+05
 cg2d: Sum(rhs),rhsMax =  -2.12031239266273E+01  3.79607446015393E+00
(PID.TID 0000.0001)  ploadbar=  1.01118204427660E+05
 cg2d: Sum(rhs),rhsMax =  -2.15511547732980E+01  3.73644949561608E+00
(PID.TID 0000.0001)  ploadbar=  1.01118072574858E+05
 cg2d: Sum(rhs),rhsMax =  -2.18404172854273E+01  3.68888164044134E+00
(PID.TID 0000.0001)  ploadbar=  1.01117940722057E+05
 cg2d: Sum(rhs),rhsMax =  -2.20570833188300E+01  3.65442914070368E+00
(PID.TID 0000.0001)  ploadbar=  1.01118639590080E+05
 cg2d: Sum(rhs),rhsMax =  -2.22410726923392E+01  3.62586038173751E+00
(PID.TID 0000.0001)  ploadbar=  1.01119338458104E+05
 cg2d: Sum(rhs),rhsMax =  -2.24059609992881E+01  3.60074662650306E+00
(PID.TID 0000.0001)  ploadbar=  1.01120037326127E+05
 cg2d: Sum(rhs),rhsMax =  -2.25569091802616E+01  3.57813718616949E+00
(PID.TID 0000.0001)  ploadbar=  1.01120736194151E+05
 cg2d: Sum(rhs),rhsMax =  -2.27015868030983E+01  3.55674507665951E+00
(PID.TID 0000.0001)  ploadbar=  1.01121435062174E+05
 cg2d: Sum(rhs),rhsMax =  -2.28452133009642E+01  3.53572674531302E+00
(PID.TID 0000.0001)  ploadbar=  1.01122133930198E+05
 cg2d: Sum(rhs),rhsMax =  -2.29892020338790E+01  3.51493133873285E+00
(PID.TID 0000.0001)  ploadbar=  1.01123269075583E+05
 cg2d: Sum(rhs),rhsMax =  -2.31364155661738E+01  3.49391247518598E+00
(PID.TID 0000.0001)  ploadbar=  1.01124404220968E+05
 cg2d: Sum(rhs),rhsMax =  -2.32855606414240E+01  3.47288183605149E+00
(PID.TID 0000.0001)  ploadbar=  1.01125539366354E+05
 cg2d: Sum(rhs),rhsMax =  -2.34343765533438E+01  3.45218891147729E+00
(PID.TID 0000.0001)  ploadbar=  1.01126674511739E+05
 cg2d: Sum(rhs),rhsMax =  -2.35797420727397E+01  3.43229406144871E+00
(PID.TID 0000.0001)  ploadbar=  1.01127809657124E+05
 cg2d: Sum(rhs),rhsMax =  -2.37210262048916E+01  3.41327097038902E+00
(PID.TID 0000.0001)  ploadbar=  1.01128944802510E+05
 cg2d: Sum(rhs),rhsMax =  -2.38605877335934E+01  3.39449535702526E+00
(PID.TID 0000.0001)  ploadbar=  1.01129292402712E+05
 cg2d: Sum(rhs),rhsMax =  -2.39959005122765E+01  3.37630750631605E+00
(PID.TID 0000.0001)  ploadbar=  1.01129640002914E+05
 cg2d: Sum(rhs),rhsMax =  -2.41275060210241E+01  3.35862197574026E+00
(PID.TID 0000.0001)  ploadbar=  1.01129987603116E+05
 cg2d: Sum(rhs),rhsMax =  -2.42567457306906E+01  3.34124895613270E+00
(PID.TID 0000.0001)  ploadbar=  1.01130335203318E+05
 cg2d: Sum(rhs),rhsMax =  -2.43847404285262E+01  3.32404931966157E+00
(PID.TID 0000.0001)  ploadbar=  1.01130682803521E+05
 cg2d: Sum(rhs),rhsMax =  -2.45118336947797E+01  3.30697062458396E+00
(PID.TID 0000.0001)  ploadbar=  1.01131030403723E+05
 cg2d: Sum(rhs),rhsMax =  -2.46392936590807E+01  3.29012173227627E+00
(PID.TID 0000.0001)  ploadbar=  1.01131474366870E+05
 cg2d: Sum(rhs),rhsMax =  -2.47655769021582E+01  3.27369767568835E+00
(PID.TID 0000.0001)  ploadbar=  1.01131918330018E+05
 cg2d: Sum(rhs),rhsMax =  -2.48889835748231E+01  3.25791547639599E+00
(PID.TID 0000.0001)  ploadbar=  1.01132362293166E+05
 cg2d: Sum(rhs),rhsMax =  -2.50098274012079E+01  3.24272012839801E+00
(PID.TID 0000.0001)  ploadbar=  1.01132806256313E+05
 cg2d: Sum(rhs),rhsMax =  -2.51285580346202E+01  3.22804824133238E+00
(PID.TID 0000.0001)  ploadbar=  1.01133250219461E+05
 cg2d: Sum(rhs),rhsMax =  -2.52457658316955E+01  3.21381907260239E+00
(PID.TID 0000.0001)  ploadbar=  1.01133694182609E+05
 cg2d: Sum(rhs),rhsMax =  -2.53609108914286E+01  3.19990982966996E+00
(PID.TID 0000.0001)  ploadbar=  1.01133512208237E+05
 cg2d: Sum(rhs),rhsMax =  -2.54773137789864E+01  3.18589931166285E+00
(PID.TID 0000.0001)  ploadbar=  1.01133330233865E+05
 cg2d: Sum(rhs),rhsMax =  -2.55983757762936E+01  3.17138609715870E+00
(PID.TID 0000.0001)  ploadbar=  1.01133148259492E+05
 cg2d: Sum(rhs),rhsMax =  -2.57257650898375E+01  3.15619538750372E+00
(PID.TID 0000.0001)  ploadbar=  1.01132966285120E+05
 cg2d: Sum(rhs),rhsMax =  -2.58614210261628E+01  3.14012162252058E+00
(PID.TID 0000.0001)  ploadbar=  1.01132784310748E+05
 cg2d: Sum(rhs),rhsMax =  -2.60074443303507E+01  3.12295690776358E+00
(PID.TID 0000.0001)  ploadbar=  1.01132602336376E+05
 cg2d: Sum(rhs),rhsMax =  -2.61657451190323E+01  3.10459774311358E+00
(PID.TID 0000.0001)  ploadbar=  1.01131281307556E+05
 cg2d: Sum(rhs),rhsMax =  -2.63359725028490E+01  3.08512017434707E+00
(PID.TID 0000.0001)  ploadbar=  1.01129960278736E+05
 cg2d: Sum(rhs),rhsMax =  -2.65206551553453E+01  3.06428018924512E+00
(PID.TID 0000.0001)  ploadbar=  1.01128639249916E+05
 cg2d: Sum(rhs),rhsMax =  -2.67210085273470E+01  3.04199986768113E+00
(PID.TID 0000.0001)  ploadbar=  1.01127318221096E+05
 cg2d: Sum(rhs),rhsMax =  -2.69381813875069E+01  3.01822729298688E+00
(PID.TID 0000.0001)  ploadbar=  1.01125997192276E+05
 cg2d: Sum(rhs),rhsMax =  -2.71744568791876E+01  2.99279450587411E+00
(PID.TID 0000.0001)  ploadbar=  1.01124676163456E+05
 cg2d: Sum(rhs),rhsMax =  -2.74320365072407E+01  2.96536681008690E+00
(PID.TID 0000.0001)  ploadbar=  1.01123539818722E+05
 cg2d: Sum(rhs),rhsMax =  -2.77099042930193E+01  2.93616045176431E+00
(PID.TID 0000.0001)  ploadbar=  1.01122403473989E+05
 cg2d: Sum(rhs),rhsMax =  -2.80062589130040E+01  2.90548290471073E+00
(PID.TID 0000.0001)  ploadbar=  1.01121267129255E+05
 cg2d: Sum(rhs),rhsMax =  -2.83153407528421E+01  2.87403196025488E+00
(PID.TID 0000.0001)  ploadbar=  1.01120130784522E+05
 cg2d: Sum(rhs),rhsMax =  -2.86278045066551E+01  2.84281423039124E+00
(PID.TID 0000.0001)  ploadbar=  1.01118994439788E+05
 cg2d: Sum(rhs),rhsMax =  -2.89360201249521E+01  2.81257463960055E+00
(PID.TID 0000.0001)  ploadbar=  1.01117858095055E+05
 cg2d: Sum(rhs),rhsMax =  -2.92379551575865E+01  2.78364285545970E+00
(PID.TID 0000.0001)  ploadbar=  1.01116993746516E+05
 cg2d: Sum(rhs),rhsMax =  -2.95432014967650E+01  2.75506556378281E+00
(PID.TID 0000.0001)  ploadbar=  1.01116129397977E+05
 cg2d: Sum(rhs),rhsMax =  -2.98505863878312E+01  2.72694379284943E+00
(PID.TID 0000.0001)  ploadbar=  1.01115265049438E+05
 cg2d: Sum(rhs),rhsMax =  -3.01618715485634E+01  2.69911183808694E+00
(PID.TID 0000.0001)  ploadbar=  1.01114400700899E+05
 cg2d: Sum(rhs),rhsMax =  -3.04828757368028E+01  2.67106471269940E+00
(PID.TID 0000.0001)  ploadbar=  1.01113536352360E+05
 cg2d: Sum(rhs),rhsMax =  -3.08198526052328E+01  2.64229882047479E+00
(PID.TID 0000.0001)  ploadbar=  1.01112672003821E+05
 cg2d: Sum(rhs),rhsMax =  -3.11659757317541E+01  2.61336102909822E+00
(PID.TID 0000.0001)  ploadbar=  1.01111492015899E+05
 cg2d: Sum(rhs),rhsMax =  -3.15233016350163E+01  2.58411340864130E+00
(PID.TID 0000.0001)  ploadbar=  1.01110312027978E+05
 cg2d: Sum(rhs),rhsMax =  -3.18881401076778E+01  2.55489768899647E+00
(PID.TID 0000.0001)  ploadbar=  1.01109132040057E+05
 cg2d: Sum(rhs),rhsMax =  -3.22582581888424E+01  2.52591726537067E+00
(PID.TID 0000.0001)  ploadbar=  1.01107952052135E+05
 cg2d: Sum(rhs),rhsMax =  -3.26321063414721E+01  2.49730286283541E+00
(PID.TID 0000.0001)  ploadbar=  1.01106772064214E+05
 cg2d: Sum(rhs),rhsMax =  -3.30058344238839E+01  2.46934252788476E+00
(PID.TID 0000.0001)  ploadbar=  1.01105592076292E+05
 cg2d: Sum(rhs),rhsMax =  -3.33750452076965E+01  2.44242872541295E+00
(PID.TID 0000.0001)  ploadbar=  1.01104364193072E+05
 cg2d: Sum(rhs),rhsMax =  -3.37481056413164E+01  2.41590816207925E+00
(PID.TID 0000.0001)  ploadbar=  1.01103136309851E+05
 cg2d: Sum(rhs),rhsMax =  -3.34751933874868E+01  2.43617286980744E+00
(PID.TID 0000.0001)  ploadbar=  1.01101908426631E+05
 cg2d: Sum(rhs),rhsMax =  -3.28390755473265E+01  2.48403886347313E+00
(PID.TID 0000.0001)  ploadbar=  1.01100680543411E+05
 cg2d: Sum(rhs),rhsMax =  -3.22640745657377E+01  2.52910118529166E+00
(PID.TID 0000.0001)  ploadbar=  1.01099452660190E+05
 cg2d: Sum(rhs),rhsMax =  -3.17414198427173E+01  2.57165856975181E+00
(PID.TID 0000.0001)  ploadbar=  1.01098224776970E+05
 cg2d: Sum(rhs),rhsMax =  -3.12653636349150E+01  2.61169378058914E+00
(PID.TID 0000.0001)  ploadbar=  1.01096716500334E+05
 cg2d: Sum(rhs),rhsMax =  -3.08211292888563E+01  2.65016215655831E+00
(PID.TID 0000.0001)  ploadbar=  1.01095208223698E+05
 cg2d: Sum(rhs),rhsMax =  -3.04334886711422E+01  2.68469065480393E+00
(PID.TID 0000.0001)  ploadbar=  1.01093699947062E+05
 cg2d: Sum(rhs),rhsMax =  -3.01218890344907E+01  2.71318131121307E+00
(PID.TID 0000.0001)  ploadbar=  1.01092191670426E+05
 cg2d: Sum(rhs),rhsMax =  -2.98896407864930E+01  2.73494004507822E+00
(PID.TID 0000.0001)  ploadbar=  1.01090683393790E+05
 cg2d: Sum(rhs),rhsMax =  -2.97328296538399E+01  2.75000335463784E+00
(PID.TID 0000.0001)  ploadbar=  1.01089175117154E+05
 cg2d: Sum(rhs),rhsMax =  -2.96184233331912E+01  2.76141170560958E+00
(PID.TID 0000.0001)  ploadbar=  1.01088780239866E+05
 cg2d: Sum(rhs),rhsMax =  -2.96298315355023E+01  2.76126768654637E+00
(PID.TID 0000.0001)  ploadbar=  1.01088385362577E+05
 cg2d: Sum(rhs),rhsMax =  -2.98013405444556E+01  2.74642260931759E+00
(PID.TID 0000.0001)  ploadbar=  1.01087990485288E+05
 cg2d: Sum(rhs),rhsMax =  -3.00656035106310E+01  2.72345143462987E+00
(PID.TID 0000.0001)  ploadbar=  1.01087595607999E+05
 cg2d: Sum(rhs),rhsMax =  -3.04965299200219E+01  2.68625354797105E+00
(PID.TID 0000.0001)  ploadbar=  1.01087200730710E+05
 cg2d: Sum(rhs),rhsMax =  -3.11562093026280E+01  2.63076768579029E+00
(PID.TID 0000.0001)  ploadbar=  1.01086805853422E+05
 cg2d: Sum(rhs),rhsMax =  -3.18923384069145E+01  2.57132198652593E+00
(PID.TID 0000.0001)  ploadbar=  1.01085710255702E+05
 cg2d: Sum(rhs),rhsMax =  -3.27154522583103E+01  2.50779811036776E+00
(PID.TID 0000.0001)  ploadbar=  1.01084614657983E+05
 cg2d: Sum(rhs),rhsMax =  -3.35818359921121E+01  2.44417509198720E+00
(PID.TID 0000.0001)  ploadbar=  1.01083519060263E+05
 cg2d: Sum(rhs),rhsMax =  -3.44447090607288E+01  2.38393749256098E+00
(PID.TID 0000.0001)  ploadbar=  1.01082423462544E+05
 cg2d: Sum(rhs),rhsMax =  -3.52924204961215E+01  2.32759837366332E+00
(PID.TID 0000.0001)  ploadbar=  1.01081327864824E+05
 cg2d: Sum(rhs),rhsMax =  -3.61165784529824E+01  2.27533653696097E+00
(PID.TID 0000.0001)  ploadbar=  1.01080232267105E+05
 cg2d: Sum(rhs),rhsMax =  -3.69601986361532E+01  2.22426137968853E+00
(PID.TID 0000.0001)  ploadbar=  1.01079555452000E+05
 cg2d: Sum(rhs),rhsMax =  -3.70815044922901E+01  2.21785590336481E+00
(PID.TID 0000.0001)  ploadbar=  1.01078878636896E+05
 cg2d: Sum(rhs),rhsMax =  -3.70778813813475E+01  2.21896146925401E+00
(PID.TID 0000.0001)  ploadbar=  1.01078201821791E+05
 cg2d: Sum(rhs),rhsMax =  -3.71013917056917E+01  2.21846131597213E+00
(PID.TID 0000.0001)  ploadbar=  1.01077525006687E+05
 cg2d: Sum(rhs),rhsMax =  -3.71491917160366E+01  2.21652994566571E+00
(PID.TID 0000.0001)  ploadbar=  1.01076848191582E+05
 cg2d: Sum(rhs),rhsMax =  -3.72189144707843E+01  2.21332362875673E+00
(PID.TID 0000.0001)  ploadbar=  1.01076171376478E+05
 cg2d: Sum(rhs),rhsMax =  -3.73361047184867E+01  2.20721839293150E+00
(PID.TID 0000.0001)  ploadbar=  1.01075932462180E+05
 cg2d: Sum(rhs),rhsMax =  -3.74970125172399E+01  2.19847612434355E+00
(PID.TID 0000.0001)  ploadbar=  1.01075693547882E+05
 cg2d: Sum(rhs),rhsMax =  -3.77004206844588E+01  2.18722968142521E+00
(PID.TID 0000.0001)  ploadbar=  1.01075454633584E+05
 cg2d: Sum(rhs),rhsMax =  -3.79469178620666E+01  2.17352778023734E+00
(PID.TID 0000.0001)  ploadbar=  1.01075215719286E+05
 cg2d: Sum(rhs),rhsMax =  -3.82366866549036E+01  2.15746291198036E+00
(PID.TID 0000.0001)  ploadbar=  1.01074976804988E+05
 cg2d: Sum(rhs),rhsMax =  -3.85691597023006E+01  2.13918367166564E+00
(PID.TID 0000.0001)  ploadbar=  1.01074737890690E+05
 cg2d: Sum(rhs),rhsMax =  -3.89270393785336E+01  2.11991485764918E+00
(PID.TID 0000.0001)  ploadbar=  1.01073456500818E+05
 cg2d: Sum(rhs),rhsMax =  -3.93309721602725E+01  2.09861032388119E+00
(PID.TID 0000.0001)  ploadbar=  1.01072175110946E+05
 cg2d: Sum(rhs),rhsMax =  -3.98042725761090E+01  2.07419461132541E+00
(PID.TID 0000.0001)  ploadbar=  1.01070893721074E+05
 cg2d: Sum(rhs),rhsMax =  -4.03388588596041E+01  2.04731874488605E+00
(PID.TID 0000.0001)  ploadbar=  1.01069612331202E+05
 cg2d: Sum(rhs),rhsMax =  -4.09321207796439E+01  2.01833214762145E+00
(PID.TID 0000.0001)  ploadbar=  1.01068330941331E+05
 cg2d: Sum(rhs),rhsMax =  -4.15843299468957E+01  1.98743966739873E+00
(PID.TID 0000.0001)  ploadbar=  1.01067049551459E+05
 cg2d: Sum(rhs),rhsMax =  -4.22869678502684E+01  1.95510023337231E+00
(PID.TID 0000.0001)  ploadbar=  1.01067179073403E+05
 cg2d: Sum(rhs),rhsMax =  -4.30409645855367E+01  1.92145769225295E+00
(PID.TID 0000.0001)  ploadbar=  1.01067308595347E+05
 cg2d: Sum(rhs),rhsMax =  -4.38410195967053E+01  1.88692916027350E+00
(PID.TID 0000.0001)  ploadbar=  1.01067438117291E+05
 cg2d: Sum(rhs),rhsMax =  -4.42228566430649E+01  1.87111424412867E+00
(PID.TID 0000.0001)  ploadbar=  1.01067567639235E+05
 cg2d: Sum(rhs),rhsMax =  -4.39800596456271E+01  1.88187631025091E+00
(PID.TID 0000.0001)  ploadbar=  1.01067697161179E+05
 cg2d: Sum(rhs),rhsMax =  -4.37324453532378E+01  1.89292248661697E+00
(PID.TID 0000.0001)  ploadbar=  1.01067826683123E+05
 cg2d: Sum(rhs),rhsMax =  -4.34978790928894E+01  1.90359873164967E+00
(PID.TID 0000.0001)  ploadbar=  1.01069447931434E+05
 cg2d: Sum(rhs),rhsMax =  -4.33450231603058E+01  1.91084979855193E+00
(PID.TID 0000.0001)  ploadbar=  1.01071069179745E+05
 cg2d: Sum(rhs),rhsMax =  -4.32753970715742E+01  1.91453774926710E+00
(PID.TID 0000.0001)  ploadbar=  1.01072690428055E+05
 cg2d: Sum(rhs),rhsMax =  -4.32712222637940E+01  1.91541393041840E+00
(PID.TID 0000.0001)  ploadbar=  1.01074311676366E+05
 cg2d: Sum(rhs),rhsMax =  -4.33228797338704E+01  1.91390439511592E+00
(PID.TID 0000.0001)  ploadbar=  1.01075932924677E+05
 cg2d: Sum(rhs),rhsMax =  -4.34290537466995E+01  1.91008622923326E+00
(PID.TID 0000.0001)  ploadbar=  1.01077554172988E+05
 cg2d: Sum(rhs),rhsMax =  -4.36399112936094E+01  1.90159872924281E+00
(PID.TID 0000.0001)  ploadbar=  1.01079207543851E+05
 cg2d: Sum(rhs),rhsMax =  -4.38811057509508E+01  1.89176963713212E+00
(PID.TID 0000.0001)  ploadbar=  1.01080860914714E+05
 cg2d: Sum(rhs),rhsMax =  -4.41513023853744E+01  1.88070132510937E+00
(PID.TID 0000.0001)  ploadbar=  1.01082514285576E+05
 cg2d: Sum(rhs),rhsMax =  -4.44476903431739E+01  1.86856234286373E+00
(PID.TID 0000.0001)  ploadbar=  1.01084167656439E+05
 cg2d: Sum(rhs),rhsMax =  -4.47868869842133E+01  1.85471364314029E+00
(PID.TID 0000.0001)  ploadbar=  1.01085821027302E+05
 cg2d: Sum(rhs),rhsMax =  -4.52019191956705E+01  1.83789330610816E+00
(PID.TID 0000.0001)  ploadbar=  1.01087474398164E+05
 cg2d: Sum(rhs),rhsMax =  -4.56662418952085E+01  1.81944150399164E+00
(PID.TID 0000.0001)  ploadbar=  1.01088536244371E+05
 cg2d: Sum(rhs),rhsMax =  -4.60954824161722E+01  1.80275948160094E+00
(PID.TID 0000.0001)  ploadbar=  1.01089598090578E+05
 cg2d: Sum(rhs),rhsMax =  -4.64263897842567E+01  1.79019896473773E+00
(PID.TID 0000.0001)  ploadbar=  1.01090659936785E+05
 cg2d: Sum(rhs),rhsMax =  -4.66338354103804E+01  1.78255374668606E+00
(PID.TID 0000.0001)  ploadbar=  1.01091721782991E+05
 cg2d: Sum(rhs),rhsMax =  -4.66990341132414E+01  1.78042101139767E+00
(PID.TID 0000.0001)  ploadbar=  1.01092783629198E+05
 cg2d: Sum(rhs),rhsMax =  -4.66305214678905E+01  1.78343413763158E+00
(PID.TID 0000.0001)  ploadbar=  1.01093845475405E+05
 cg2d: Sum(rhs),rhsMax =  -4.63929784256044E+01  1.79296661408945E+00
(PID.TID 0000.0001)  ploadbar=  1.01095812883927E+05
 cg2d: Sum(rhs),rhsMax =  -4.61269480078253E+01  1.80371302230635E+00
(PID.TID 0000.0001)  ploadbar=  1.01097780292449E+05
 cg2d: Sum(rhs),rhsMax =  -4.58548742285981E+01  1.81483103168895E+00
(PID.TID 0000.0001)  ploadbar=  1.01099747700971E+05
 cg2d: Sum(rhs),rhsMax =  -4.55970038361534E+01  1.82552550351384E+00
(PID.TID 0000.0001)  ploadbar=  1.01101715109494E+05
 cg2d: Sum(rhs),rhsMax =  -4.53677899230491E+01  1.83519722334047E+00
(PID.TID 0000.0001)  ploadbar=  1.01103682518016E+05
 cg2d: Sum(rhs),rhsMax =  -4.51762552684320E+01  1.84344725996918E+00
(PID.TID 0000.0001)  ploadbar=  1.01105649926538E+05
 cg2d: Sum(rhs),rhsMax =  -4.50241389439949E+01  1.85023821074115E+00
(PID.TID 0000.0001)  ploadbar=  1.01107899705279E+05
 cg2d: Sum(rhs),rhsMax =  -4.49311853401398E+01  1.85471902564864E+00
(PID.TID 0000.0001)  ploadbar=  1.01110149484020E+05
 cg2d: Sum(rhs),rhsMax =  -4.49588268350440E+01  1.85433071140110E+00
(PID.TID 0000.0001)  ploadbar=  1.01112399262761E+05
 cg2d: Sum(rhs),rhsMax =  -4.51015964445263E+01  1.84931175211078E+00
(PID.TID 0000.0001)  ploadbar=  1.01114649041503E+05
 cg2d: Sum(rhs),rhsMax =  -4.53475108516898E+01  1.84023532194264E+00
(PID.TID 0000.0001)  ploadbar=  1.01116898820244E+05
 cg2d: Sum(rhs),rhsMax =  -4.56848033092833E+01  1.82769480077524E+00
(PID.TID 0000.0001)  ploadbar=  1.01119148598985E+05
 cg2d: Sum(rhs),rhsMax =  -4.62186391650086E+01  1.80752070427318E+00
(PID.TID 0000.0001)  ploadbar=  1.01120885302175E+05
 cg2d: Sum(rhs),rhsMax =  -4.69027185396756E+01  1.78198085447603E+00
(PID.TID 0000.0001)  ploadbar=  1.01122622005365E+05
 cg2d: Sum(rhs),rhsMax =  -4.66659166605764E+01  1.79175130756626E+00
(PID.TID 0000.0001)  ploadbar=  1.01124358708555E+05
 cg2d: Sum(rhs),rhsMax =  -4.71809876257528E+01  1.77281656483130E+00
(PID.TID 0000.0001)  ploadbar=  1.01126095411746E+05
 cg2d: Sum(rhs),rhsMax =  -4.78863889981546E+01  1.74723035776407E+00
(PID.TID 0000.0001)  ploadbar=  1.01127832114936E+05
 cg2d: Sum(rhs),rhsMax =  -4.87217070253515E+01  1.71770879063713E+00
(PID.TID 0000.0001)  ploadbar=  1.01129568818126E+05
 cg2d: Sum(rhs),rhsMax =  -4.97013325934528E+01  1.68432095572452E+00
(PID.TID 0000.0001)  ploadbar=  1.01130105117164E+05
 cg2d: Sum(rhs),rhsMax =  -5.08770805605186E+01  1.64589511013584E+00
(PID.TID 0000.0001)  ploadbar=  1.01130641416202E+05
 cg2d: Sum(rhs),rhsMax =  -5.21988769002365E+01  1.60474336513029E+00
(PID.TID 0000.0001)  ploadbar=  1.01131177715239E+05
 cg2d: Sum(rhs),rhsMax =  -5.26221084176821E+01  1.59239388219667E+00
(PID.TID 0000.0001)  ploadbar=  1.01131714014277E+05
 cg2d: Sum(rhs),rhsMax =  -5.08477498942006E+01  1.64856633578934E+00
(PID.TID 0000.0001)  ploadbar=  1.01132250313315E+05
 cg2d: Sum(rhs),rhsMax =  -4.74333840283718E+01  1.76790453261311E+00
(PID.TID 0000.0001)  ploadbar=  1.01132786612352E+05
 cg2d: Sum(rhs),rhsMax =  -4.47241139892685E+01  1.87566256240241E+00
(PID.TID 0000.0001)  ploadbar=  1.01133755086817E+05
 cg2d: Sum(rhs),rhsMax =  -4.30600664484446E+01  1.94878382997977E+00
(PID.TID 0000.0001)  ploadbar=  1.01134723561282E+05
 cg2d: Sum(rhs),rhsMax =  -4.17110986812860E+01  2.01241983094069E+00
(PID.TID 0000.0001)  ploadbar=  1.01135692035747E+05
 cg2d: Sum(rhs),rhsMax =  -4.06345179740023E+01  2.06631700532120E+00
(PID.TID 0000.0001)  ploadbar=  1.01136660510212E+05
 cg2d: Sum(rhs),rhsMax =  -3.98100488737622E+01  2.10965371986204E+00
(PID.TID 0000.0001)  ploadbar=  1.01137628984676E+05
 cg2d: Sum(rhs),rhsMax =  -3.92313237971194E+01  2.14127512979567E+00
(PID.TID 0000.0001)  ploadbar=  1.01138597459141E+05
 cg2d: Sum(rhs),rhsMax =  -3.89343156211419E+01  2.15818736259911E+00
(PID.TID 0000.0001)  ploadbar=  1.01139760065705E+05
 cg2d: Sum(rhs),rhsMax =  -3.89584792030441E+01  2.15749501118412E+00
(PID.TID 0000.0001)  ploadbar=  1.01140922672269E+05
 cg2d: Sum(rhs),rhsMax =  -3.90729898791146E+01  2.15188350631646E+00
(PID.TID 0000.0001)  ploadbar=  1.01142085278833E+05
 cg2d: Sum(rhs),rhsMax =  -3.89795759004895E+01  2.15782861035268E+00
(PID.TID 0000.0001)  ploadbar=  1.01143247885397E+05
 cg2d: Sum(rhs),rhsMax =  -3.87212848498870E+01  2.17309150660293E+00
(PID.TID 0000.0001)  ploadbar=  1.01144410491961E+05
 cg2d: Sum(rhs),rhsMax =  -3.88135387667137E+01  2.16887130684080E+00
(PID.TID 0000.0001)  ploadbar=  1.01145573098525E+05
 cg2d: Sum(rhs),rhsMax =  -3.90618653537806E+01  2.15595633909992E+00
(PID.TID 0000.0001)  ploadbar=  1.01146941831443E+05
 cg2d: Sum(rhs),rhsMax =  -3.93563511795251E+01  2.14061966240542E+00
(PID.TID 0000.0001)  ploadbar=  1.01148310564361E+05
 cg2d: Sum(rhs),rhsMax =  -3.96045551533372E+01  2.12792780511299E+00
(PID.TID 0000.0001)  ploadbar=  1.01149679297279E+05
 cg2d: Sum(rhs),rhsMax =  -3.97914273111478E+01  2.11859255140212E+00
(PID.TID 0000.0001)  ploadbar=  1.01151048030197E+05
 cg2d: Sum(rhs),rhsMax =  -4.00088465230420E+01  2.10767596236767E+00
(PID.TID 0000.0001)  ploadbar=  1.01152416763115E+05
 cg2d: Sum(rhs),rhsMax =  -4.01738918246572E+01  2.09954795157981E+00
(PID.TID 0000.0001)  ploadbar=  1.01153785496033E+05
 cg2d: Sum(rhs),rhsMax =  -4.03243901759210E+01  2.09233633346038E+00
(PID.TID 0000.0001)  ploadbar=  1.01154108005937E+05
 cg2d: Sum(rhs),rhsMax =  -4.04980189202765E+01  2.08408248104179E+00
(PID.TID 0000.0001)  ploadbar=  1.01154430515842E+05
 cg2d: Sum(rhs),rhsMax =  -4.07251804191659E+01  2.07326717197473E+00
(PID.TID 0000.0001)  ploadbar=  1.01154753025747E+05
 cg2d: Sum(rhs),rhsMax =  -4.10123601008583E+01  2.05965127544804E+00
(PID.TID 0000.0001)  ploadbar=  1.01155075535652E+05
 cg2d: Sum(rhs),rhsMax =  -4.13425614690872E+01  2.04419453966935E+00
(PID.TID 0000.0001)  ploadbar=  1.01155398045557E+05
 cg2d: Sum(rhs),rhsMax =  -4.16803736514518E+01  2.02871341870980E+00
(PID.TID 0000.0001)  ploadbar=  1.01155720555462E+05
 cg2d: Sum(rhs),rhsMax =  -4.17195645054345E+01  2.02783151848404E+00
(PID.TID 0000.0001)  ploadbar=  1.01155021205440E+05
 cg2d: Sum(rhs),rhsMax =  -4.14615393485799E+01  2.04141734042513E+00
(PID.TID 0000.0001)  ploadbar=  1.01154321855418E+05
 cg2d: Sum(rhs),rhsMax =  -4.09125825676277E+01  2.06973343039196E+00
(PID.TID 0000.0001)  ploadbar=  1.01153622505397E+05
 cg2d: Sum(rhs),rhsMax =  -4.07833443732416E+01  2.07716815330479E+00
(PID.TID 0000.0001)  ploadbar=  1.01152923155375E+05
 cg2d: Sum(rhs),rhsMax =  -4.14664700755423E+01  2.04376867065319E+00
(PID.TID 0000.0001)  ploadbar=  1.01152223805354E+05
 cg2d: Sum(rhs),rhsMax =  -4.19406042145202E+01  2.02143588009840E+00
(PID.TID 0000.0001)  ploadbar=  1.01151524455332E+05
 cg2d: Sum(rhs),rhsMax =  -4.23031313371311E+01  2.00491249025462E+00
(PID.TID 0000.0001)  ploadbar=  1.01151413204330E+05
 cg2d: Sum(rhs),rhsMax =  -4.27071242022576E+01  1.98677586131831E+00
(PID.TID 0000.0001)  ploadbar=  1.01151301953328E+05
 cg2d: Sum(rhs),rhsMax =  -4.30822574463941E+01  1.97034293111775E+00
(PID.TID 0000.0001)  ploadbar=  1.01151190702325E+05
 cg2d: Sum(rhs),rhsMax =  -4.34118545417085E+01  1.95629442549116E+00
(PID.TID 0000.0001)  ploadbar=  1.01151079451323E+05
 cg2d: Sum(rhs),rhsMax =  -4.36933147020324E+01  1.94464992851801E+00
(PID.TID 0000.0001)  ploadbar=  1.01150968200321E+05
 cg2d: Sum(rhs),rhsMax =  -4.39271617943572E+01  1.93530418913848E+00
(PID.TID 0000.0001)  ploadbar=  1.01150856949319E+05
 cg2d: Sum(rhs),rhsMax =  -4.40211565977223E+01  1.93204706667985E+00
(PID.TID 0000.0001)  ploadbar=  1.01150933448049E+05
 cg2d: Sum(rhs),rhsMax =  -4.41228409834114E+01  1.92833704789370E+00
(PID.TID 0000.0001)  ploadbar=  1.01151009946780E+05
 cg2d: Sum(rhs),rhsMax =  -4.42309696802977E+01  1.92423652745752E+00
(PID.TID 0000.0001)  ploadbar=  1.01151086445511E+05
 cg2d: Sum(rhs),rhsMax =  -4.43316989709637E+01  1.92035416529135E+00
(PID.TID 0000.0001)  ploadbar=  1.01151162944242E+05
 cg2d: Sum(rhs),rhsMax =  -4.44231493385870E+01  1.91677462203033E+00
(PID.TID 0000.0001)  ploadbar=  1.01151239442973E+05
 cg2d: Sum(rhs),rhsMax =  -4.44744032804394E+01  1.91482968735730E+00
(PID.TID 0000.0001)  ploadbar=  1.01151315941703E+05
 cg2d: Sum(rhs),rhsMax =  -4.45323562836417E+01  1.91266365935168E+00
(PID.TID 0000.0001)  ploadbar=  1.01151207335566E+05
 cg2d: Sum(rhs),rhsMax =  -4.45577044513638E+01  1.91196120138541E+00
(PID.TID 0000.0001)  ploadbar=  1.01151098729429E+05
 cg2d: Sum(rhs),rhsMax =  -4.45638972734007E+01  1.91214521364459E+00
(PID.TID 0000.0001)  ploadbar=  1.01150990123292E+05
 cg2d: Sum(rhs),rhsMax =  -4.45326057550756E+01  1.91400485879409E+00
(PID.TID 0000.0001)  ploadbar=  1.01150881517155E+05
 cg2d: Sum(rhs),rhsMax =  -4.44933487078912E+01  1.91627590224346E+00
(PID.TID 0000.0001)  ploadbar=  1.01150772911017E+05
 cg2d: Sum(rhs),rhsMax =  -4.45022005509734E+01  1.91653971824109E+00
(PID.TID 0000.0001)  ploadbar=  1.01150664304880E+05
 cg2d: Sum(rhs),rhsMax =  -4.45312745050932E+01  1.91592879863370E+00
(PID.TID 0000.0001)  ploadbar=  1.01150728476681E+05
 cg2d: Sum(rhs),rhsMax =  -4.46140034364846E+01  1.91301249928951E+00
(PID.TID 0000.0001)  ploadbar=  1.01150792648481E+05
 cg2d: Sum(rhs),rhsMax =  -4.47569263284114E+01  1.90754383979124E+00
(PID.TID 0000.0001)  ploadbar=  1.01150856820282E+05
 cg2d: Sum(rhs),rhsMax =  -4.47975426673026E+01  1.90646521127224E+00
(PID.TID 0000.0001)  ploadbar=  1.01150920992082E+05
 cg2d: Sum(rhs),rhsMax =  -4.49281875665897E+01  1.90158983822518E+00
(PID.TID 0000.0001)  ploadbar=  1.01150985163883E+05
 cg2d: Sum(rhs),rhsMax =  -4.51480599968703E+01  1.89301165396732E+00
(PID.TID 0000.0001)  ploadbar=  1.01151049335684E+05
 cg2d: Sum(rhs),rhsMax =  -4.52732543041137E+01  1.88850924829313E+00
(PID.TID 0000.0001)  ploadbar=  1.01151559616822E+05
 cg2d: Sum(rhs),rhsMax =  -4.53374758350466E+01  1.88661355752491E+00
(PID.TID 0000.0001)  ploadbar=  1.01152069897960E+05
 cg2d: Sum(rhs),rhsMax =  -4.55079946900171E+01  1.88037153438225E+00
(PID.TID 0000.0001)  ploadbar=  1.01152580179098E+05
 cg2d: Sum(rhs),rhsMax =  -4.58756306478893E+01  1.86617599761420E+00
(PID.TID 0000.0001)  ploadbar=  1.01153090460236E+05
 cg2d: Sum(rhs),rhsMax =  -4.64110703540975E+01  1.84556264828458E+00
(PID.TID 0000.0001)  ploadbar=  1.01153600741374E+05
 cg2d: Sum(rhs),rhsMax =  -4.71069962747867E+01  1.81925311040648E+00
(PID.TID 0000.0001)  ploadbar=  1.01154111022512E+05
 cg2d: Sum(rhs),rhsMax =  -4.79788557132157E+01  1.78703823478449E+00
(PID.TID 0000.0001)  ploadbar=  1.01153903974593E+05
 cg2d: Sum(rhs),rhsMax =  -4.90217484275775E+01  1.74975464637911E+00
(PID.TID 0000.0001)  ploadbar=  1.01153696926673E+05
 cg2d: Sum(rhs),rhsMax =  -4.98958477440744E+01  1.71973499007544E+00
(PID.TID 0000.0001)  ploadbar=  1.01153489878753E+05
 cg2d: Sum(rhs),rhsMax =  -5.07819624459519E+01  1.69026682682020E+00
(PID.TID 0000.0001)  ploadbar=  1.01153282830834E+05
 cg2d: Sum(rhs),rhsMax =  -5.17309683877921E+01  1.65970718058973E+00
(PID.TID 0000.0001)  ploadbar=  1.01153075782914E+05
 cg2d: Sum(rhs),rhsMax =  -5.24207682707938E+01  1.63822928973052E+00
(PID.TID 0000.0001)  ploadbar=  1.01152868734994E+05
 cg2d: Sum(rhs),rhsMax =  -5.29795917861774E+01  1.62135681510455E+00
(PID.TID 0000.0001)  ploadbar=  1.01152248052039E+05
 cg2d: Sum(rhs),rhsMax =  -5.36028184366944E+01  1.60295871612700E+00
(PID.TID 0000.0001)  ploadbar=  1.01151627369084E+05
 cg2d: Sum(rhs),rhsMax =  -5.42965646507670E+01  1.58297704755574E+00
(PID.TID 0000.0001)  ploadbar=  1.01151006686129E+05
 cg2d: Sum(rhs),rhsMax =  -5.50481724160013E+01  1.56190839971574E+00
(PID.TID 0000.0001)  ploadbar=  1.01150386003174E+05
 cg2d: Sum(rhs),rhsMax =  -5.53248700967934E+01  1.55469157328226E+00
(PID.TID 0000.0001)  ploadbar=  1.01149765320219E+05
 cg2d: Sum(rhs),rhsMax =  -5.48870043492537E+01  1.56774984694325E+00
(PID.TID 0000.0001)  ploadbar=  1.01149144637264E+05
 cg2d: Sum(rhs),rhsMax =  -5.44609415306962E+01  1.58064549043106E+00
(PID.TID 0000.0001)  ploadbar=  1.01149041557133E+05
 cg2d: Sum(rhs),rhsMax =  -5.40649637078260E+01  1.59282771953116E+00
(PID.TID 0000.0001)  ploadbar=  1.01148938477002E+05
 cg2d: Sum(rhs),rhsMax =  -5.36988725793250E+01  1.60427209033799E+00
(PID.TID 0000.0001)  ploadbar=  1.01148835396871E+05
 cg2d: Sum(rhs),rhsMax =  -5.33826541673832E+01  1.61434175035113E+00
(PID.TID 0000.0001)  ploadbar=  1.01148732316740E+05
 cg2d: Sum(rhs),rhsMax =  -5.31490705728603E+01  1.62198495181917E+00
(PID.TID 0000.0001)  ploadbar=  1.01148629236609E+05
 cg2d: Sum(rhs),rhsMax =  -5.30203275604465E+01  1.62645571091634E+00
(PID.TID 0000.0001)  ploadbar=  1.01148526156478E+05
 cg2d: Sum(rhs),rhsMax =  -5.30098812880802E+01  1.62733673116841E+00
(PID.TID 0000.0001)  ploadbar=  1.01148926324936E+05
 cg2d: Sum(rhs),rhsMax =  -5.31078429067378E+01  1.62492210807576E+00
(PID.TID 0000.0001)  ploadbar=  1.01149326493394E+05
 cg2d: Sum(rhs),rhsMax =  -5.32974962447408E+01  1.61975526981276E+00
(PID.TID 0000.0001)  ploadbar=  1.01149726661853E+05
 cg2d: Sum(rhs),rhsMax =  -5.35491109228136E+01  1.61279049641385E+00
(PID.TID 0000.0001)  ploadbar=  1.01150126830311E+05
 cg2d: Sum(rhs),rhsMax =  -5.38511517413084E+01  1.60442606508357E+00
(PID.TID 0000.0001)  ploadbar=  1.01150526998770E+05
 cg2d: Sum(rhs),rhsMax =  -5.41919952767560E+01  1.59504940436200E+00
(PID.TID 0000.0001)  ploadbar=  1.01150927167228E+05
 cg2d: Sum(rhs),rhsMax =  -5.45605881161249E+01  1.58490801060841E+00
(PID.TID 0000.0001)  ploadbar=  1.01150738982613E+05
 cg2d: Sum(rhs),rhsMax =  -5.49784002459321E+01  1.57341758224849E+00
(PID.TID 0000.0001)  ploadbar=  1.01150550797997E+05
 cg2d: Sum(rhs),rhsMax =  -5.54120298089992E+01  1.56158067138127E+00
(PID.TID 0000.0001)  ploadbar=  1.01150362613382E+05
 cg2d: Sum(rhs),rhsMax =  -5.57381679089276E+01  1.55284261568275E+00
(PID.TID 0000.0001)  ploadbar=  1.01150174428767E+05
 cg2d: Sum(rhs),rhsMax =  -5.54734913441998E+01  1.56058073912508E+00
(PID.TID 0000.0001)  ploadbar=  1.01149986244151E+05
 cg2d: Sum(rhs),rhsMax =  -5.58311791567307E+01  1.55084094002363E+00
(PID.TID 0000.0001)  ploadbar=  1.01149798059536E+05
 cg2d: Sum(rhs),rhsMax =  -5.62368748938998E+01  1.53995267133110E+00
(PID.TID 0000.0001)  ploadbar=  1.01149177593360E+05
 cg2d: Sum(rhs),rhsMax =  -5.66575869950723E+01  1.52885753107907E+00
(PID.TID 0000.0001)  ploadbar=  1.01148557127184E+05
 cg2d: Sum(rhs),rhsMax =  -5.71130931694150E+01  1.51704412239790E+00
(PID.TID 0000.0001)  ploadbar=  1.01147936661008E+05
 cg2d: Sum(rhs),rhsMax =  -5.76083009644295E+01  1.50442508385319E+00
(PID.TID 0000.0001)  ploadbar=  1.01147316194832E+05
 cg2d: Sum(rhs),rhsMax =  -5.81150142176982E+01  1.49177269550970E+00
(PID.TID 0000.0001)  ploadbar=  1.01146695728657E+05
 cg2d: Sum(rhs),rhsMax =  -5.86366061511092E+01  1.47900871808637E+00
(PID.TID 0000.0001)  ploadbar=  1.01146075262481E+05
 cg2d: Sum(rhs),rhsMax =  -5.91507099971725E+01  1.46664219506259E+00
(PID.TID 0000.0001)  ploadbar=  1.01146305662406E+05
 cg2d: Sum(rhs),rhsMax =  -5.96711747513369E+01  1.45431840923937E+00
(PID.TID 0000.0001)  ploadbar=  1.01146536062331E+05
 cg2d: Sum(rhs),rhsMax =  -6.02002709244817E+01  1.44198771830555E+00
(PID.TID 0000.0001)  ploadbar=  1.01146766462256E+05
 cg2d: Sum(rhs),rhsMax =  -6.07390855651302E+01  1.42963431638335E+00
(PID.TID 0000.0001)  ploadbar=  1.01146996862181E+05
 cg2d: Sum(rhs),rhsMax =  -6.12867332435640E+01  1.41729020594632E+00
(PID.TID 0000.0001)  ploadbar=  1.01147227262106E+05
 cg2d: Sum(rhs),rhsMax =  -6.18403044568129E+01  1.40503351493222E+00
(PID.TID 0000.0001)  ploadbar=  1.01147457662031E+05
 cg2d: Sum(rhs),rhsMax =  -6.24473344664936E+01  1.39184187922579E+00
(PID.TID 0000.0001)  ploadbar=  1.01148334107387E+05
 cg2d: Sum(rhs),rhsMax =  -6.30864939139977E+01  1.37824053194994E+00
(PID.TID 0000.0001)  ploadbar=  1.01149210552743E+05
 cg2d: Sum(rhs),rhsMax =  -6.37579702166802E+01  1.36425878436730E+00
(PID.TID 0000.0001)  ploadbar=  1.01150086998099E+05
 cg2d: Sum(rhs),rhsMax =  -6.38534031703384E+01  1.36279007196803E+00
(PID.TID 0000.0001)  ploadbar=  1.01150963443455E+05
 cg2d: Sum(rhs),rhsMax =  -6.33851080751840E+01  1.37347053462805E+00
(PID.TID 0000.0001)  ploadbar=  1.01151839888811E+05
 cg2d: Sum(rhs),rhsMax =  -6.29286940278483E+01  1.38408547924972E+00
(PID.TID 0000.0001)  ploadbar=  1.01152716334167E+05
 cg2d: Sum(rhs),rhsMax =  -6.25159864604568E+01  1.39380706471885E+00
(PID.TID 0000.0001)  ploadbar=  1.01153021863281E+05
 cg2d: Sum(rhs),rhsMax =  -6.21408825953530E+01  1.40273518588831E+00
(PID.TID 0000.0001)  ploadbar=  1.01153327392395E+05
 cg2d: Sum(rhs),rhsMax =  -6.18068482599078E+01  1.41076083605287E+00
(PID.TID 0000.0001)  ploadbar=  1.01153632921510E+05
 cg2d: Sum(rhs),rhsMax =  -6.15070322286881E+01  1.41801159968998E+00
(PID.TID 0000.0001)  ploadbar=  1.01153938450624E+05
 cg2d: Sum(rhs),rhsMax =  -6.12235923491905E+01  1.42487910549014E+00
(PID.TID 0000.0001)  ploadbar=  1.01154243979738E+05
 cg2d: Sum(rhs),rhsMax =  -6.09327129672627E+01  1.43191447548507E+00
(PID.TID 0000.0001)  ploadbar=  1.01154549508852E+05
 cg2d: Sum(rhs),rhsMax =  -6.06195489627451E+01  1.43960033171711E+00
(PID.TID 0000.0001)  ploadbar=  1.01155051458018E+05
 cg2d: Sum(rhs),rhsMax =  -6.02907880686563E+01  1.44779554888149E+00
(PID.TID 0000.0001)  ploadbar=  1.01155553407184E+05
 cg2d: Sum(rhs),rhsMax =  -5.99470952696041E+01  1.45649861418145E+00
(PID.TID 0000.0001)  ploadbar=  1.01156055356350E+05
 cg2d: Sum(rhs),rhsMax =  -5.95960813317198E+01  1.46553889775610E+00
(PID.TID 0000.0001)  ploadbar=  1.01156557305516E+05
 cg2d: Sum(rhs),rhsMax =  -5.92510949583238E+01  1.47459241217342E+00
(PID.TID 0000.0001)  ploadbar=  1.01157059254681E+05
 cg2d: Sum(rhs),rhsMax =  -5.89303139589991E+01  1.48319757152696E+00
(PID.TID 0000.0001)  ploadbar=  1.01157561203847E+05
 cg2d: Sum(rhs),rhsMax =  -5.86505814596111E+01  1.49084708346244E+00
(PID.TID 0000.0001)  ploadbar=  1.01156788780250E+05
 cg2d: Sum(rhs),rhsMax =  -5.84309894555661E+01  1.49702134418742E+00
(PID.TID 0000.0001)  ploadbar=  1.01156016356653E+05
 cg2d: Sum(rhs),rhsMax =  -5.82677638630558E+01  1.50178787467996E+00
(PID.TID 0000.0001)  ploadbar=  1.01155243933056E+05
 cg2d: Sum(rhs),rhsMax =  -5.81451335707240E+01  1.50553610575388E+00
(PID.TID 0000.0001)  ploadbar=  1.01154471509459E+05
 cg2d: Sum(rhs),rhsMax =  -5.80395081578840E+01  1.50887272338188E+00
(PID.TID 0000.0001)  ploadbar=  1.01153699085862E+05
 cg2d: Sum(rhs),rhsMax =  -5.79270997793421E+01  1.51241327103456E+00
(PID.TID 0000.0001)  ploadbar=  1.01152926662264E+05
 cg2d: Sum(rhs),rhsMax =  -5.77756865096292E+01  1.51701385835967E+00
(PID.TID 0000.0001)  ploadbar=  1.01153450138075E+05
 cg2d: Sum(rhs),rhsMax =  -5.75935136564918E+01  1.52247490727474E+00
(PID.TID 0000.0001)  ploadbar=  1.01153973613885E+05
 cg2d: Sum(rhs),rhsMax =  -5.73853955866066E+01  1.52868309714721E+00
(PID.TID 0000.0001)  ploadbar=  1.01154497089695E+05
 cg2d: Sum(rhs),rhsMax =  -5.71641113013292E+01  1.53531398451859E+00
(PID.TID 0000.0001)  ploadbar=  1.01155020565506E+05
 cg2d: Sum(rhs),rhsMax =  -5.69465183605874E+01  1.54192556317989E+00
(PID.TID 0000.0001)  ploadbar=  1.01155544041316E+05
 cg2d: Sum(rhs),rhsMax =  -5.67489208445650E+01  1.54806954201068E+00
(PID.TID 0000.0001)  ploadbar=  1.01156067517126E+05
 cg2d: Sum(rhs),rhsMax =  -5.65970769924441E+01  1.55292091450066E+00
(PID.TID 0000.0001)  ploadbar=  1.01156011617603E+05
 cg2d: Sum(rhs),rhsMax =  -5.64888696602039E+01  1.55651737699926E+00
(PID.TID 0000.0001)  ploadbar=  1.01155955718080E+05
 cg2d: Sum(rhs),rhsMax =  -5.64248945331166E+01  1.55882997340414E+00
(PID.TID 0000.0001)  ploadbar=  1.01155899818557E+05
 cg2d: Sum(rhs),rhsMax =  -5.63969001235916E+01  1.56008057765943E+00
(PID.TID 0000.0001)  ploadbar=  1.01155843919034E+05
 cg2d: Sum(rhs),rhsMax =  -5.63895179023811E+01  1.56069604761971E+00
(PID.TID 0000.0001)  ploadbar=  1.01155788019511E+05
 cg2d: Sum(rhs),rhsMax =  -5.63832244725317E+01  1.56121603708762E+00
(PID.TID 0000.0001)  ploadbar=  1.01155732119988E+05
 cg2d: Sum(rhs),rhsMax =  -5.63830956136728E+01  1.56164621928573E+00
(PID.TID 0000.0001)  ploadbar=  1.01154206823760E+05
 cg2d: Sum(rhs),rhsMax =  -5.63923098011778E+01  1.56189796655410E+00
(PID.TID 0000.0001)  ploadbar=  1.01152681527531E+05
 cg2d: Sum(rhs),rhsMax =  -5.64029001634366E+01  1.56219318341661E+00
(PID.TID 0000.0001)  ploadbar=  1.01151156231302E+05
 cg2d: Sum(rhs),rhsMax =  -5.64245907851074E+01  1.56226409704040E+00
(PID.TID 0000.0001)  ploadbar=  1.01149630935073E+05
 cg2d: Sum(rhs),rhsMax =  -5.65100429951931E+01  1.56065455478177E+00
(PID.TID 0000.0001)  ploadbar=  1.01148105638844E+05
 cg2d: Sum(rhs),rhsMax =  -5.66069460723808E+01  1.55881624233122E+00
(PID.TID 0000.0001)  ploadbar=  1.01146580342616E+05
 cg2d: Sum(rhs),rhsMax =  -5.66992936056808E+01  1.55708097989173E+00
(PID.TID 0000.0001)  ploadbar=  1.01146322106598E+05
 cg2d: Sum(rhs),rhsMax =  -5.68358644110470E+01  1.55411286457873E+00
(PID.TID 0000.0001)  ploadbar=  1.01146063870579E+05
 cg2d: Sum(rhs),rhsMax =  -5.70231921924732E+01  1.54975795197068E+00
(PID.TID 0000.0001)  ploadbar=  1.01145805634561E+05
 cg2d: Sum(rhs),rhsMax =  -5.72478588528578E+01  1.54440816480080E+00
(PID.TID 0000.0001)  ploadbar=  1.01145547398543E+05
 cg2d: Sum(rhs),rhsMax =  -5.74926485270280E+01  1.53854333350837E+00
(PID.TID 0000.0001)  ploadbar=  1.01145289162525E+05
 cg2d: Sum(rhs),rhsMax =  -5.77509324329483E+01  1.53235106229795E+00
(PID.TID 0000.0001)  ploadbar=  1.01145030926507E+05
 cg2d: Sum(rhs),rhsMax =  -5.80287057887909E+01  1.52576521899452E+00
(PID.TID 0000.0001)  ploadbar=  1.01145354874309E+05
 cg2d: Sum(rhs),rhsMax =  -5.78545523427588E+01  1.53117456703049E+00
(PID.TID 0000.0001)  ploadbar=  1.01145678822110E+05
 cg2d: Sum(rhs),rhsMax =  -5.75995540605253E+01  1.53883800841655E+00
(PID.TID 0000.0001)  ploadbar=  1.01146002769912E+05
 cg2d: Sum(rhs),rhsMax =  -5.73275604391206E+01  1.54709133595950E+00
(PID.TID 0000.0001)  ploadbar=  1.01146326717713E+05
 cg2d: Sum(rhs),rhsMax =  -5.70581664277331E+01  1.55541821266828E+00
(PID.TID 0000.0001)  ploadbar=  1.01146650665515E+05
 cg2d: Sum(rhs),rhsMax =  -5.68092359065466E+01  1.56332464993244E+00
(PID.TID 0000.0001)  ploadbar=  1.01146974613316E+05
 cg2d: Sum(rhs),rhsMax =  -5.65897860847408E+01  1.57040933102525E+00
(PID.TID 0000.0001)  ploadbar=  1.01147345711542E+05
 cg2d: Sum(rhs),rhsMax =  -5.64103118618499E+01  1.57635741851591E+00
(PID.TID 0000.0001)  ploadbar=  1.01147716809768E+05
 cg2d: Sum(rhs),rhsMax =  -5.62639188315969E+01  1.58134115396132E+00
(PID.TID 0000.0001)  ploadbar=  1.01148087907994E+05
 cg2d: Sum(rhs),rhsMax =  -5.61419516397358E+01  1.58559069968470E+00
(PID.TID 0000.0001)  ploadbar=  1.01148459006220E+05
 cg2d: Sum(rhs),rhsMax =  -5.60346172160569E+01  1.58937721931847E+00
(PID.TID 0000.0001)  ploadbar=  1.01148830104446E+05
 cg2d: Sum(rhs),rhsMax =  -5.59348127803978E+01  1.59290026494272E+00
(PID.TID 0000.0001)  ploadbar=  1.01149201202671E+05
 cg2d: Sum(rhs),rhsMax =  -5.58611898699632E+01  1.59575517050364E+00
(PID.TID 0000.0001)  ploadbar=  1.01150089288684E+05
 cg2d: Sum(rhs),rhsMax =  -5.58119614782495E+01  1.59798887214733E+00
(PID.TID 0000.0001)  ploadbar=  1.01150977374696E+05
 cg2d: Sum(rhs),rhsMax =  -5.57856114998556E+01  1.59964120108472E+00
(PID.TID 0000.0001)  ploadbar=  1.01151865460709E+05
 cg2d: Sum(rhs),rhsMax =  -5.57835117640114E+01  1.60067131848862E+00
(PID.TID 0000.0001)  ploadbar=  1.01152753546721E+05
 cg2d: Sum(rhs),rhsMax =  -5.58032489043836E+01  1.60114534652577E+00
(PID.TID 0000.0001)  ploadbar=  1.01153641632734E+05
 cg2d: Sum(rhs),rhsMax =  -5.58405987741742E+01  1.60118016721901E+00
(PID.TID 0000.0001)  ploadbar=  1.01154529718746E+05
 cg2d: Sum(rhs),rhsMax =  -5.58639338797099E+01  1.60162216367858E+00
(PID.TID 0000.0001)  ploadbar=  1.01155681263170E+05
 cg2d: Sum(rhs),rhsMax =  -5.58730705268582E+01  1.60248170982590E+00
(PID.TID 0000.0001)  ploadbar=  1.01156832807593E+05
 cg2d: Sum(rhs),rhsMax =  -5.58694055827504E+01  1.60372514488253E+00
(PID.TID 0000.0001)  ploadbar=  1.01157984352017E+05
 cg2d: Sum(rhs),rhsMax =  -5.58558282928644E+01  1.60527879915331E+00
(PID.TID 0000.0001)  ploadbar=  1.01159135896440E+05
 cg2d: Sum(rhs),rhsMax =  -5.58387532220544E+01  1.60695880904626E+00
(PID.TID 0000.0001)  ploadbar=  1.01160287440863E+05
 cg2d: Sum(rhs),rhsMax =  -5.58121296510073E+01  1.60893713069636E+00
(PID.TID 0000.0001)  ploadbar=  1.01161438985287E+05
 cg2d: Sum(rhs),rhsMax =  -5.57867918661156E+01  1.61092716257654E+00
(PID.TID 0000.0001)  ploadbar=  1.01161319897862E+05
 cg2d: Sum(rhs),rhsMax =  -5.58042595297393E+01  1.61172931034513E+00
(PID.TID 0000.0001)  ploadbar=  1.01161200810437E+05
 cg2d: Sum(rhs),rhsMax =  -5.58989440933834E+01  1.61035400413640E+00
(PID.TID 0000.0001)  ploadbar=  1.01161081723012E+05
 cg2d: Sum(rhs),rhsMax =  -5.57383605976722E+01  1.61640497508853E+00
(PID.TID 0000.0001)  ploadbar=  1.01160962635587E+05
 cg2d: Sum(rhs),rhsMax =  -5.55227499574492E+01  1.62415191327597E+00
(PID.TID 0000.0001)  ploadbar=  1.01160843548162E+05
 cg2d: Sum(rhs),rhsMax =  -5.53446521952632E+01  1.63090592830819E+00
(PID.TID 0000.0001)  ploadbar=  1.01160724460737E+05
 cg2d: Sum(rhs),rhsMax =  -5.52097311568723E+01  1.63635696216533E+00
(PID.TID 0000.0001)  ploadbar=  1.01161073051044E+05
 cg2d: Sum(rhs),rhsMax =  -5.51283431681012E+01  1.64017306113663E+00
(PID.TID 0000.0001)  ploadbar=  1.01161421641352E+05
 cg2d: Sum(rhs),rhsMax =  -5.51023599841617E+01  1.64228188297869E+00
(PID.TID 0000.0001)  ploadbar=  1.01161770231659E+05
 cg2d: Sum(rhs),rhsMax =  -5.51270935724494E+01  1.64281635638844E+00
(PID.TID 0000.0001)  ploadbar=  1.01162118821966E+05
 cg2d: Sum(rhs),rhsMax =  -5.51981272959928E+01  1.64191403411299E+00
(PID.TID 0000.0001)  ploadbar=  1.01162467412273E+05
 cg2d: Sum(rhs),rhsMax =  -5.53121538557710E+01  1.63968188489643E+00
(PID.TID 0000.0001)  ploadbar=  1.01162816002581E+05
 cg2d: Sum(rhs),rhsMax =  -5.54522830868156E+01  1.63672479456694E+00
(PID.TID 0000.0001)  ploadbar=  1.01163528220219E+05
 cg2d: Sum(rhs),rhsMax =  -5.55958473606071E+01  1.63371934603429E+00
(PID.TID 0000.0001)  ploadbar=  1.01164240437858E+05
 cg2d: Sum(rhs),rhsMax =  -5.57273198684631E+01  1.63112196610804E+00
(PID.TID 0000.0001)  ploadbar=  1.01164952655496E+05
 cg2d: Sum(rhs),rhsMax =  -5.58393979295013E+01  1.62914266573381E+00
(PID.TID 0000.0001)  ploadbar=  1.01165664873135E+05
 cg2d: Sum(rhs),rhsMax =  -5.58902663007267E+01  1.62899517879342E+00
(PID.TID 0000.0001)  ploadbar=  1.01166377090774E+05
 cg2d: Sum(rhs),rhsMax =  -5.58882668463910E+01  1.63043250024634E+00
(PID.TID 0000.0001)  ploadbar=  1.01167089308412E+05
 cg2d: Sum(rhs),rhsMax =  -5.58149694066961E+01  1.63389803708627E+00
(PID.TID 0000.0001)  ploadbar=  1.01166832809566E+05
 cg2d: Sum(rhs),rhsMax =  -5.56817226952795E+01  1.63908617846237E+00
(PID.TID 0000.0001)  ploadbar=  1.01166576310719E+05
 cg2d: Sum(rhs),rhsMax =  -5.54978789477607E+01  1.64575472357735E+00
(PID.TID 0000.0001)  ploadbar=  1.01166319811873E+05
 cg2d: Sum(rhs),rhsMax =  -5.52766479264558E+01  1.65354624160580E+00
(PID.TID 0000.0001)  ploadbar=  1.01166063313026E+05
 cg2d: Sum(rhs),rhsMax =  -5.50304596373261E+01  1.66211939354351E+00
(PID.TID 0000.0001)  ploadbar=  1.01165806814179E+05
 cg2d: Sum(rhs),rhsMax =  -5.47690170921671E+01  1.67120023847689E+00
(PID.TID 0000.0001)  ploadbar=  1.01165550315333E+05
 cg2d: Sum(rhs),rhsMax =  -5.45418773770593E+01  1.67937319396607E+00
(PID.TID 0000.0001)  ploadbar=  1.01165170948991E+05
 cg2d: Sum(rhs),rhsMax =  -5.43652612831950E+01  1.68610950564133E+00
(PID.TID 0000.0001)  ploadbar=  1.01164791582649E+05
 cg2d: Sum(rhs),rhsMax =  -5.42382204858694E+01  1.69140830439166E+00
(PID.TID 0000.0001)  ploadbar=  1.01164412216306E+05
 cg2d: Sum(rhs),rhsMax =  -5.41496455575796E+01  1.69559312555653E+00
(PID.TID 0000.0001)  ploadbar=  1.01164032849964E+05
 cg2d: Sum(rhs),rhsMax =  -5.41227749260654E+01  1.69792221278373E+00
(PID.TID 0000.0001)  ploadbar=  1.01163653483622E+05
 cg2d: Sum(rhs),rhsMax =  -5.41428280043628E+01  1.69885272775515E+00
(PID.TID 0000.0001)  ploadbar=  1.01163274117280E+05
 cg2d: Sum(rhs),rhsMax =  -5.40952646062812E+01  1.70182340382826E+00
(PID.TID 0000.0001)  ploadbar=  1.01162915977276E+05
 cg2d: Sum(rhs),rhsMax =  -5.39866109699892E+01  1.70664221398262E+00
(PID.TID 0000.0001)  ploadbar=  1.01162557837273E+05
 cg2d: Sum(rhs),rhsMax =  -5.38219183468660E+01  1.71317634786626E+00
(PID.TID 0000.0001)  ploadbar=  1.01162199697269E+05
 cg2d: Sum(rhs),rhsMax =  -5.36155425314691E+01  1.72100257062649E+00
(PID.TID 0000.0001)  ploadbar=  1.01161841557265E+05
 cg2d: Sum(rhs),rhsMax =  -5.33872596599627E+01  1.72951532846358E+00
(PID.TID 0000.0001)  ploadbar=  1.01161483417261E+05
 cg2d: Sum(rhs),rhsMax =  -5.30442948030220E+01  1.74177624605807E+00
(PID.TID 0000.0001)  ploadbar=  1.01161125277258E+05
 cg2d: Sum(rhs),rhsMax =  -5.23969589123712E+01  1.76441172589419E+00
(PID.TID 0000.0001)  ploadbar=  1.01160517389184E+05
 cg2d: Sum(rhs),rhsMax =  -5.18292248673955E+01  1.78489254521150E+00
(PID.TID 0000.0001)  ploadbar=  1.01159909501111E+05
 cg2d: Sum(rhs),rhsMax =  -5.13417580131969E+01  1.80302965754454E+00
(PID.TID 0000.0001)  ploadbar=  1.01159301613038E+05
 cg2d: Sum(rhs),rhsMax =  -5.09260441982032E+01  1.81897501405000E+00
(PID.TID 0000.0001)  ploadbar=  1.01158693724965E+05
 cg2d: Sum(rhs),rhsMax =  -5.05668434249139E+01  1.83315784919469E+00
(PID.TID 0000.0001)  ploadbar=  1.01158085836892E+05
 cg2d: Sum(rhs),rhsMax =  -5.02479590733075E+01  1.84608573282060E+00
(PID.TID 0000.0001)  ploadbar=  1.01157477948819E+05
 cg2d: Sum(rhs),rhsMax =  -4.99722456125819E+01  1.85753619960785E+00
(PID.TID 0000.0001)  ploadbar=  1.01157134353646E+05
 cg2d: Sum(rhs),rhsMax =  -4.97199333215721E+01  1.86819788659263E+00
(PID.TID 0000.0001)  ploadbar=  1.01156790758474E+05
 cg2d: Sum(rhs),rhsMax =  -4.94785629081418E+01  1.87851454717815E+00
(PID.TID 0000.0001)  ploadbar=  1.01156447163301E+05
 cg2d: Sum(rhs),rhsMax =  -4.92403864844304E+01  1.88877424010148E+00
(PID.TID 0000.0001)  ploadbar=  1.01156103568128E+05
 cg2d: Sum(rhs),rhsMax =  -4.90033018262848E+01  1.89905399490309E+00
(PID.TID 0000.0001)  ploadbar=  1.01155759972956E+05
 cg2d: Sum(rhs),rhsMax =  -4.87698721582424E+01  1.90925260032058E+00
(PID.TID 0000.0001)  ploadbar=  1.01155416377783E+05
 cg2d: Sum(rhs),rhsMax =  -4.85435082573768E+01  1.91928188829606E+00
(PID.TID 0000.0001)  ploadbar=  1.01155505699089E+05
 cg2d: Sum(rhs),rhsMax =  -4.83302401206357E+01  1.92889214377473E+00
(PID.TID 0000.0001)  ploadbar=  1.01155595020395E+05
 cg2d: Sum(rhs),rhsMax =  -4.81331694699116E+01  1.93794626597231E+00
(PID.TID 0000.0001)  ploadbar=  1.01155684341701E+05
 cg2d: Sum(rhs),rhsMax =  -4.79561269614678E+01  1.94627180553564E+00
(PID.TID 0000.0001)  ploadbar=  1.01155773663007E+05
 cg2d: Sum(rhs),rhsMax =  -4.78000123362986E+01  1.95381151643257E+00
(PID.TID 0000.0001)  ploadbar=  1.01155862984314E+05
 cg2d: Sum(rhs),rhsMax =  -4.76617812151967E+01  1.96067074889053E+00
(PID.TID 0000.0001)  ploadbar=  1.01155952305620E+05
 cg2d: Sum(rhs),rhsMax =  -4.75256335738009E+01  1.96739869908345E+00
(PID.TID 0000.0001)  ploadbar=  1.01155493486280E+05
 cg2d: Sum(rhs),rhsMax =  -4.73907396254171E+01  1.97402642280018E+00
(PID.TID 0000.0001)  ploadbar=  1.01155034666940E+05
 cg2d: Sum(rhs),rhsMax =  -4.72538150441324E+01  1.98068987845081E+00
(PID.TID 0000.0001)  ploadbar=  1.01154575847600E+05
 cg2d: Sum(rhs),rhsMax =  -4.71723416452371E+01  1.98496642254524E+00
(PID.TID 0000.0001)  ploadbar=  1.01154117028260E+05
 cg2d: Sum(rhs),rhsMax =  -4.70792584867084E+01  1.98966098287711E+00
(PID.TID 0000.0001)  ploadbar=  1.01153658208920E+05
 cg2d: Sum(rhs),rhsMax =  -4.69767289913268E+01  1.99469231429664E+00
(PID.TID 0000.0001)  ploadbar=  1.01153199389580E+05
 cg2d: Sum(rhs),rhsMax =  -4.68947950823029E+01  1.99894262747224E+00
(PID.TID 0000.0001)  ploadbar=  1.01153067957223E+05
 cg2d: Sum(rhs),rhsMax =  -4.68292147193830E+01  2.00257941155067E+00
(PID.TID 0000.0001)  ploadbar=  1.01152936524867E+05
 cg2d: Sum(rhs),rhsMax =  -4.67850786622717E+01  2.00538056400404E+00
(PID.TID 0000.0001)  ploadbar=  1.01152805092511E+05
 cg2d: Sum(rhs),rhsMax =  -4.67665631250879E+01  2.00715940287859E+00
(PID.TID 0000.0001)  ploadbar=  1.01152673660154E+05
 cg2d: Sum(rhs),rhsMax =  -4.67747303135432E+01  2.00786302711439E+00
(PID.TID 0000.0001)  ploadbar=  1.01152542227797E+05
 cg2d: Sum(rhs),rhsMax =  -4.68077927222834E+01  2.00756539323912E+00
(PID.TID 0000.0001)  ploadbar=  1.01152410795441E+05
 cg2d: Sum(rhs),rhsMax =  -4.68453469383803E+01  2.00706501045422E+00
(PID.TID 0000.0001)  ploadbar=  1.01152206145133E+05
 cg2d: Sum(rhs),rhsMax =  -4.68866337300863E+01  2.00639633325929E+00
(PID.TID 0000.0001)  ploadbar=  1.01152001494825E+05
 cg2d: Sum(rhs),rhsMax =  -4.69233163914538E+01  2.00591878464339E+00
(PID.TID 0000.0001)  ploadbar=  1.01151796844517E+05
 cg2d: Sum(rhs),rhsMax =  -4.69485602528605E+01  2.00592525882630E+00
(PID.TID 0000.0001)  ploadbar=  1.01151592194209E+05
 cg2d: Sum(rhs),rhsMax =  -4.69601113795581E+01  2.00650966953678E+00
(PID.TID 0000.0001)  ploadbar=  1.01151387543901E+05
 cg2d: Sum(rhs),rhsMax =  -4.69594239097318E+01  2.00760739904471E+00
(PID.TID 0000.0001)  ploadbar=  1.01151182893593E+05
 cg2d: Sum(rhs),rhsMax =  -4.69361725274368E+01  2.00970923196435E+00
(PID.TID 0000.0001)  ploadbar=  1.01151623941555E+05
 cg2d: Sum(rhs),rhsMax =  -4.69088274153769E+01  2.01202185894155E+00
(PID.TID 0000.0001)  ploadbar=  1.01152064989518E+05
 cg2d: Sum(rhs),rhsMax =  -4.68834585766828E+01  2.01428286961884E+00
(PID.TID 0000.0001)  ploadbar=  1.01152506037481E+05
 cg2d: Sum(rhs),rhsMax =  -4.68630264926340E+01  2.01635905113358E+00
(PID.TID 0000.0001)  ploadbar=  1.01152947085444E+05
 cg2d: Sum(rhs),rhsMax =  -4.68514056795227E+01  2.01807797606877E+00
(PID.TID 0000.0001)  ploadbar=  1.01153388133406E+05
 cg2d: Sum(rhs),rhsMax =  -4.68500107221818E+01  2.01936848859085E+00
(PID.TID 0000.0001)  ploadbar=  1.01153829181369E+05
 cg2d: Sum(rhs),rhsMax =  -4.68656633826759E+01  2.01987373910588E+00
(PID.TID 0000.0001)  ploadbar=  1.01154224642776E+05
 cg2d: Sum(rhs),rhsMax =  -4.68899249905682E+01  2.01995412799210E+00
(PID.TID 0000.0001)  ploadbar=  1.01154620104183E+05
 cg2d: Sum(rhs),rhsMax =  -4.69195325551999E+01  2.01974945940916E+00
(PID.TID 0000.0001)  ploadbar=  1.01155015565590E+05
 cg2d: Sum(rhs),rhsMax =  -4.69514788334737E+01  2.01938579288330E+00
(PID.TID 0000.0001)  ploadbar=  1.01155411026996E+05
 cg2d: Sum(rhs),rhsMax =  -4.69833117138198E+01  2.01896831342669E+00
(PID.TID 0000.0001)  ploadbar=  1.01155806488403E+05
 cg2d: Sum(rhs),rhsMax =  -4.70144227902531E+01  2.01852001054871E+00
(PID.TID 0000.0001)  ploadbar=  1.01156201949810E+05
 cg2d: Sum(rhs),rhsMax =  -4.70554380898141E+01  2.01777745156310E+00
(PID.TID 0000.0001)  ploadbar=  1.01156525261894E+05
 cg2d: Sum(rhs),rhsMax =  -4.71003707727375E+01  2.01699780962208E+00
(PID.TID 0000.0001)  ploadbar=  1.01156848573978E+05
 cg2d: Sum(rhs),rhsMax =  -4.71488548384121E+01  2.01619327132091E+00
(PID.TID 0000.0001)  ploadbar=  1.01157171886062E+05
 cg2d: Sum(rhs),rhsMax =  -4.72011339666622E+01  2.01535396473035E+00
(PID.TID 0000.0001)  ploadbar=  1.01157495198146E+05
 cg2d: Sum(rhs),rhsMax =  -4.72562972202288E+01  2.01451689843869E+00
(PID.TID 0000.0001)  ploadbar=  1.01157818510230E+05
 cg2d: Sum(rhs),rhsMax =  -4.73129233265761E+01  2.01373861380884E+00
(PID.TID 0000.0001)  ploadbar=  1.01158141822315E+05
 cg2d: Sum(rhs),rhsMax =  -4.73663450631926E+01  2.01308581397121E+00
(PID.TID 0000.0001)  ploadbar=  1.01157684243126E+05
 cg2d: Sum(rhs),rhsMax =  -4.74117053669567E+01  2.01276605152940E+00
(PID.TID 0000.0001)  ploadbar=  1.01157226663938E+05
 cg2d: Sum(rhs),rhsMax =  -4.74451869333281E+01  2.01294331121632E+00
(PID.TID 0000.0001)  ploadbar=  1.01156769084749E+05
 cg2d: Sum(rhs),rhsMax =  -4.74643693435038E+01  2.01371842328261E+00
(PID.TID 0000.0001)  ploadbar=  1.01156311505561E+05
 cg2d: Sum(rhs),rhsMax =  -4.74681822027546E+01  2.01513832207842E+00
(PID.TID 0000.0001)  ploadbar=  1.01155853926372E+05
 cg2d: Sum(rhs),rhsMax =  -4.74570907375255E+01  2.01718441896487E+00
(PID.TID 0000.0001)  ploadbar=  1.01155396347184E+05
 cg2d: Sum(rhs),rhsMax =  -4.74152996001746E+01  2.02054803881869E+00
(PID.TID 0000.0001)  ploadbar=  1.01155025421505E+05
 cg2d: Sum(rhs),rhsMax =  -4.73463304236675E+01  2.02508476893868E+00
(PID.TID 0000.0001)  ploadbar=  1.01154654495827E+05
 cg2d: Sum(rhs),rhsMax =  -4.72519913966238E+01  2.03073156872413E+00
(PID.TID 0000.0001)  ploadbar=  1.01154283570148E+05
 cg2d: Sum(rhs),rhsMax =  -4.71344352350092E+01  2.03741098087511E+00
(PID.TID 0000.0001)  ploadbar=  1.01153912644470E+05
 cg2d: Sum(rhs),rhsMax =  -4.69965383063640E+01  2.04501449743780E+00
(PID.TID 0000.0001)  ploadbar=  1.01153541718791E+05
 cg2d: Sum(rhs),rhsMax =  -4.68389767933680E+01  2.05352867089884E+00
(PID.TID 0000.0001)  ploadbar=  1.01153170793113E+05
 cg2d: Sum(rhs),rhsMax =  -4.66656549721143E+01  2.06270909105050E+00
(PID.TID 0000.0001)  ploadbar=  1.01152644360425E+05
 cg2d: Sum(rhs),rhsMax =  -4.64747231467723E+01  2.07265149449074E+00
(PID.TID 0000.0001)  ploadbar=  1.01152117927737E+05
 cg2d: Sum(rhs),rhsMax =  -4.62700771230543E+01  2.08320099141065E+00
(PID.TID 0000.0001)  ploadbar=  1.01151591495049E+05
 cg2d: Sum(rhs),rhsMax =  -4.60608268837460E+01  2.09396119840624E+00
(PID.TID 0000.0001)  ploadbar=  1.01151065062361E+05
 cg2d: Sum(rhs),rhsMax =  -4.58537819948803E+01  2.10462687103298E+00
(PID.TID 0000.0001)  ploadbar=  1.01150538629673E+05
 cg2d: Sum(rhs),rhsMax =  -4.56500774678157E+01  2.11514106347148E+00
(PID.TID 0000.0001)  ploadbar=  1.01150012196985E+05
 cg2d: Sum(rhs),rhsMax =  -4.54650232200938E+01  2.12494560809706E+00
(PID.TID 0000.0001)  ploadbar=  1.01149367935828E+05
 cg2d: Sum(rhs),rhsMax =  -4.53205936630858E+01  2.13298472406134E+00
(PID.TID 0000.0001)  ploadbar=  1.01148723674672E+05
 cg2d: Sum(rhs),rhsMax =  -4.52244388681750E+01  2.13885769563190E+00
(PID.TID 0000.0001)  ploadbar=  1.01148079413515E+05
 cg2d: Sum(rhs),rhsMax =  -4.51791849495712E+01  2.14240856803751E+00
(PID.TID 0000.0001)  ploadbar=  1.01147435152358E+05
 cg2d: Sum(rhs),rhsMax =  -4.51925720695409E+01  2.14324750845085E+00
(PID.TID 0000.0001)  ploadbar=  1.01146790891202E+05
 cg2d: Sum(rhs),rhsMax =  -4.52649326918839E+01  2.14135756742703E+00
(PID.TID 0000.0001)  ploadbar=  1.01146146630045E+05
 cg2d: Sum(rhs),rhsMax =  -4.53835911388567E+01  2.13725940417718E+00
(PID.TID 0000.0001)  ploadbar=  1.01145156327789E+05
 cg2d: Sum(rhs),rhsMax =  -4.55385109645145E+01  2.13145434524994E+00
(PID.TID 0000.0001)  ploadbar=  1.01144166025532E+05
 cg2d: Sum(rhs),rhsMax =  -4.57230500116698E+01  2.12428355581993E+00
(PID.TID 0000.0001)  ploadbar=  1.01143175723275E+05
 cg2d: Sum(rhs),rhsMax =  -4.59379155928638E+01  2.11574743160255E+00
(PID.TID 0000.0001)  ploadbar=  1.01142185421018E+05
 cg2d: Sum(rhs),rhsMax =  -4.61787171832313E+01  2.10608285682313E+00
(PID.TID 0000.0001)  ploadbar=  1.01141195118762E+05
 cg2d: Sum(rhs),rhsMax =  -4.64394014800473E+01  2.09559277729319E+00
(PID.TID 0000.0001)  ploadbar=  1.01140204816505E+05
 cg2d: Sum(rhs),rhsMax =  -4.67108744473078E+01  2.08472985008566E+00
(PID.TID 0000.0001)  ploadbar=  1.01138781391385E+05
 cg2d: Sum(rhs),rhsMax =  -4.69804209844320E+01  2.07406936521969E+00
(PID.TID 0000.0001)  ploadbar=  1.01137357966265E+05
 cg2d: Sum(rhs),rhsMax =  -4.72300300360401E+01  2.06439746463484E+00
(PID.TID 0000.0001)  ploadbar=  1.01135934541145E+05
 cg2d: Sum(rhs),rhsMax =  -4.74424905187332E+01  2.05643688281762E+00
(PID.TID 0000.0001)  ploadbar=  1.01134511116024E+05
 cg2d: Sum(rhs),rhsMax =  -4.76089506853547E+01  2.05052315857788E+00
(PID.TID 0000.0001)  ploadbar=  1.01133087690904E+05
 cg2d: Sum(rhs),rhsMax =  -4.77395001720376E+01  2.04618481135790E+00
(PID.TID 0000.0001)  ploadbar=  1.01131664265784E+05
 cg2d: Sum(rhs),rhsMax =  -4.78526336537274E+01  2.04253007233504E+00
(PID.TID 0000.0001)  ploadbar=  1.01131563453135E+05
 cg2d: Sum(rhs),rhsMax =  -4.79503481606271E+01  2.03946029044029E+00
(PID.TID 0000.0001)  ploadbar=  1.01131462640486E+05
 cg2d: Sum(rhs),rhsMax =  -4.80368295869671E+01  2.03679485710391E+00
(PID.TID 0000.0001)  ploadbar=  1.01131361827837E+05
 cg2d: Sum(rhs),rhsMax =  -4.81136515486263E+01  2.03446212155339E+00
(PID.TID 0000.0001)  ploadbar=  1.01131261015188E+05
 cg2d: Sum(rhs),rhsMax =  -4.81783923937165E+01  2.03256479344790E+00
(PID.TID 0000.0001)  ploadbar=  1.01131160202539E+05
 cg2d: Sum(rhs),rhsMax =  -4.82256202303872E+01  2.03132266856373E+00
(PID.TID 0000.0001)  ploadbar=  1.01131059389890E+05
 cg2d: Sum(rhs),rhsMax =  -4.82649082534785E+01  2.03046966720968E+00
(PID.TID 0000.0001)  ploadbar=  1.01132372049832E+05
 cg2d: Sum(rhs),rhsMax =  -4.82936494449138E+01  2.03011218005010E+00
(PID.TID 0000.0001)  ploadbar=  1.01133684709774E+05
 cg2d: Sum(rhs),rhsMax =  -4.83056973837600E+01  2.03050823468028E+00
(PID.TID 0000.0001)  ploadbar=  1.01134997369716E+05
 cg2d: Sum(rhs),rhsMax =  -4.82971805988991E+01  2.03181944416640E+00
(PID.TID 0000.0001)  ploadbar=  1.01136310029657E+05
 cg2d: Sum(rhs),rhsMax =  -4.82657621350561E+01  2.03414115234698E+00
(PID.TID 0000.0001)  ploadbar=  1.01137622689600E+05
 cg2d: Sum(rhs),rhsMax =  -4.82160028173108E+01  2.03727865298164E+00
(PID.TID 0000.0001)  ploadbar=  1.01138935349541E+05
 cg2d: Sum(rhs),rhsMax =  -4.81562150749182E+01  2.04084846569667E+00
(PID.TID 0000.0001)  ploadbar=  1.01140649454817E+05
 cg2d: Sum(rhs),rhsMax =  -4.80987578627289E+01  2.04433262165548E+00
(PID.TID 0000.0001)  ploadbar=  1.01142363560092E+05
 cg2d: Sum(rhs),rhsMax =  -4.80494302481404E+01  2.04748634044016E+00
(PID.TID 0000.0001)  ploadbar=  1.01144077665367E+05
 cg2d: Sum(rhs),rhsMax =  -4.80084697514006E+01  2.05029867670649E+00
(PID.TID 0000.0001)  ploadbar=  1.01145791770643E+05
 cg2d: Sum(rhs),rhsMax =  -4.79676536918755E+01  2.05312218510803E+00
(PID.TID 0000.0001)  ploadbar=  1.01147505875918E+05
 cg2d: Sum(rhs),rhsMax =  -4.79107521860271E+01  2.05664592502452E+00
(PID.TID 0000.0001)  ploadbar=  1.01149219981193E+05
 cg2d: Sum(rhs),rhsMax =  -4.78284333984840E+01  2.06127548699992E+00
(PID.TID 0000.0001)  ploadbar=  1.01150577622345E+05
 cg2d: Sum(rhs),rhsMax =  -4.77143081321361E+01  2.06730429263578E+00
(PID.TID 0000.0001)  ploadbar=  1.01151935263497E+05
 cg2d: Sum(rhs),rhsMax =  -4.75774603379894E+01  2.07435661958695E+00
(PID.TID 0000.0001)  ploadbar=  1.01153292904649E+05
 cg2d: Sum(rhs),rhsMax =  -4.74011779506752E+01  2.08317812810555E+00
(PID.TID 0000.0001)  ploadbar=  1.01154650545800E+05
 cg2d: Sum(rhs),rhsMax =  -4.71906314542328E+01  2.09357464686605E+00
(PID.TID 0000.0001)  ploadbar=  1.01156008186952E+05
 cg2d: Sum(rhs),rhsMax =  -4.69581800164273E+01  2.10503272221236E+00
(PID.TID 0000.0001)  ploadbar=  1.01157365828104E+05
 cg2d: Sum(rhs),rhsMax =  -4.67141140723118E+01  2.11708690642992E+00
(PID.TID 0000.0001)  ploadbar=  1.01158150129743E+05
 cg2d: Sum(rhs),rhsMax =  -4.64667617438673E+01  2.12937103544112E+00
(PID.TID 0000.0001)  ploadbar=  1.01158934431382E+05
 cg2d: Sum(rhs),rhsMax =  -4.62224317679561E+01  2.14159933367515E+00
(PID.TID 0000.0001)  ploadbar=  1.01159718733021E+05
 cg2d: Sum(rhs),rhsMax =  -4.59841264695118E+01  2.15362859515239E+00
(PID.TID 0000.0001)  ploadbar=  1.01160503034660E+05
 cg2d: Sum(rhs),rhsMax =  -4.57506575104992E+01  2.16550878717578E+00
(PID.TID 0000.0001)  ploadbar=  1.01161287336300E+05
 cg2d: Sum(rhs),rhsMax =  -4.55170851586575E+01  2.17746875306438E+00
(PID.TID 0000.0001)  ploadbar=  1.01162071637938E+05
 cg2d: Sum(rhs),rhsMax =  -4.52859289578143E+01  2.18948852958661E+00
(PID.TID 0000.0001)  ploadbar=  1.01162962201324E+05
 cg2d: Sum(rhs),rhsMax =  -4.50542058420779E+01  2.20170664747417E+00
(PID.TID 0000.0001)  ploadbar=  1.01163852764709E+05
 cg2d: Sum(rhs),rhsMax =  -4.48210694450605E+01  2.21417291752182E+00
(PID.TID 0000.0001)  ploadbar=  1.01164743328094E+05
 cg2d: Sum(rhs),rhsMax =  -4.45876726487966E+01  2.22683680121852E+00
(PID.TID 0000.0001)  ploadbar=  1.01165633891479E+05
 cg2d: Sum(rhs),rhsMax =  -4.43572977518617E+01  2.23953494991314E+00
(PID.TID 0000.0001)  ploadbar=  1.01166524454865E+05
 cg2d: Sum(rhs),rhsMax =  -4.41338135140287E+01  2.25205945680182E+00
(PID.TID 0000.0001)  ploadbar=  1.01167415018250E+05
 cg2d: Sum(rhs),rhsMax =  -4.39156517894609E+01  2.26435966524566E+00
(PID.TID 0000.0001)  ploadbar=  1.01168559540231E+05
 cg2d: Sum(rhs),rhsMax =  -4.37034998028106E+01  2.27639927615023E+00
(PID.TID 0000.0001)  ploadbar=  1.01169704062213E+05
 cg2d: Sum(rhs),rhsMax =  -4.34989380991753E+01  2.28808305869602E+00
(PID.TID 0000.0001)  ploadbar=  1.01170848584195E+05
 cg2d: Sum(rhs),rhsMax =  -4.33029300446060E+01  2.29934863336205E+00
(PID.TID 0000.0001)  ploadbar=  1.01171993106176E+05
 cg2d: Sum(rhs),rhsMax =  -4.31155926451451E+01  2.31018355356000E+00
(PID.TID 0000.0001)  ploadbar=  1.01173137628158E+05
 cg2d: Sum(rhs),rhsMax =  -4.29368604062028E+01  2.32058424538687E+00
(PID.TID 0000.0001)  ploadbar=  1.01174282150139E+05
 cg2d: Sum(rhs),rhsMax =  -4.27771933255962E+01  2.33002046572670E+00
(PID.TID 0000.0001)  ploadbar=  1.01175562373623E+05
 cg2d: Sum(rhs),rhsMax =  -4.26443875583863E+01  2.33804329806724E+00
(PID.TID 0000.0001)  ploadbar=  1.01176842597107E+05
 cg2d: Sum(rhs),rhsMax =  -4.25436836891620E+01  2.34433880045542E+00
(PID.TID 0000.0001)  ploadbar=  1.01178122820591E+05
 cg2d: Sum(rhs),rhsMax =  -4.24777584469709E+01  2.34873210104384E+00
(PID.TID 0000.0001)  ploadbar=  1.01179403044075E+05
 cg2d: Sum(rhs),rhsMax =  -4.24469704385060E+01  2.35118356754899E+00
(PID.TID 0000.0001)  ploadbar=  1.01180683267559E+05
 cg2d: Sum(rhs),rhsMax =  -4.24507352713476E+01  2.35171838956007E+00
(PID.TID 0000.0001)  ploadbar=  1.01181963491043E+05
 cg2d: Sum(rhs),rhsMax =  -4.24710572257182E+01  2.35126727178914E+00
(PID.TID 0000.0001)  ploadbar=  1.01183880665940E+05
 cg2d: Sum(rhs),rhsMax =  -4.24974734550055E+01  2.35040463001358E+00
(PID.TID 0000.0001)  ploadbar=  1.01185797840837E+05
 cg2d: Sum(rhs),rhsMax =  -4.25222138321421E+01  2.34956091153310E+00
(PID.TID 0000.0001)  ploadbar=  1.01187715015734E+05
 cg2d: Sum(rhs),rhsMax =  -4.25408530489793E+01  2.34898185633403E+00
(PID.TID 0000.0001)  ploadbar=  1.01189632190632E+05
 cg2d: Sum(rhs),rhsMax =  -4.25528187367298E+01  2.34869800480104E+00
(PID.TID 0000.0001)  ploadbar=  1.01191549365529E+05
 cg2d: Sum(rhs),rhsMax =  -4.25621453856317E+01  2.34848591736722E+00
(PID.TID 0000.0001)  ploadbar=  1.01193466540426E+05
 cg2d: Sum(rhs),rhsMax =  -4.25642857822542E+01  2.34872472912796E+00
(PID.TID 0000.0001)  ploadbar=  1.01195279226862E+05
 cg2d: Sum(rhs),rhsMax =  -4.25642907702667E+01  2.34913128134944E+00
(PID.TID 0000.0001)  ploadbar=  1.01197091913298E+05
 cg2d: Sum(rhs),rhsMax =  -4.25701295527524E+01  2.34926922555997E+00
(PID.TID 0000.0001)  ploadbar=  1.01198904599734E+05
 cg2d: Sum(rhs),rhsMax =  -4.25778482272303E+01  2.34935208448401E+00
(PID.TID 0000.0001)  ploadbar=  1.01200717286170E+05
 cg2d: Sum(rhs),rhsMax =  -4.25854871856032E+01  2.34949293029889E+00
(PID.TID 0000.0001)  ploadbar=  1.01202529972606E+05
 cg2d: Sum(rhs),rhsMax =  -4.25873814089143E+01  2.35000294206694E+00
(PID.TID 0000.0001)  ploadbar=  1.01204342659042E+05
 cg2d: Sum(rhs),rhsMax =  -4.25983090010847E+01  2.35006284367531E+00
(PID.TID 0000.0001)  ploadbar=  1.01203660867392E+05
 cg2d: Sum(rhs),rhsMax =  -4.26148878224238E+01  2.34986126492132E+00
(PID.TID 0000.0001)  ploadbar=  1.01202979075743E+05
 cg2d: Sum(rhs),rhsMax =  -4.26430963796371E+01  2.34907241152279E+00
(PID.TID 0000.0001)  ploadbar=  1.01202297284093E+05
 cg2d: Sum(rhs),rhsMax =  -4.26901976542754E+01  2.34730363487276E+00
(PID.TID 0000.0001)  ploadbar=  1.01201615492444E+05
 cg2d: Sum(rhs),rhsMax =  -4.26534846772296E+01  2.35020549499572E+00
(PID.TID 0000.0001)  ploadbar=  1.01200933700795E+05
 cg2d: Sum(rhs),rhsMax =  -4.25159428008725E+01  2.35874545124343E+00
(PID.TID 0000.0001)  ploadbar=  1.01200251909145E+05
 cg2d: Sum(rhs),rhsMax =  -4.23588859969728E+01  2.36844700500013E+00
(PID.TID 0000.0001)  ploadbar=  1.01199957611292E+05
 cg2d: Sum(rhs),rhsMax =  -4.21996110843764E+01  2.37836141798507E+00
(PID.TID 0000.0001)  ploadbar=  1.01199663313438E+05
 cg2d: Sum(rhs),rhsMax =  -4.20430816620988E+01  2.38821459307256E+00
(PID.TID 0000.0001)  ploadbar=  1.01199369015585E+05
 cg2d: Sum(rhs),rhsMax =  -4.18920090165776E+01  2.39784819424540E+00
(PID.TID 0000.0001)  ploadbar=  1.01199074717732E+05
 cg2d: Sum(rhs),rhsMax =  -4.17646981539114E+01  2.40620338074262E+00
(PID.TID 0000.0001)  ploadbar=  1.01198780419878E+05
 cg2d: Sum(rhs),rhsMax =  -4.17400667874538E+01  2.40868683037179E+00
(PID.TID 0000.0001)  ploadbar=  1.01198486122025E+05
 cg2d: Sum(rhs),rhsMax =  -4.17427452352696E+01  2.40951791476438E+00
(PID.TID 0000.0001)  ploadbar=  1.01197763806159E+05
 cg2d: Sum(rhs),rhsMax =  -4.17542149739500E+01  2.40976100963609E+00
(PID.TID 0000.0001)  ploadbar=  1.01197041490294E+05
 cg2d: Sum(rhs),rhsMax =  -4.17584537374664E+01  2.41033760203211E+00
(PID.TID 0000.0001)  ploadbar=  1.01196319174428E+05
 cg2d: Sum(rhs),rhsMax =  -4.17463911458468E+01  2.41177126698385E+00
(PID.TID 0000.0001)  ploadbar=  1.01195596858562E+05
 cg2d: Sum(rhs),rhsMax =  -4.17169010800063E+01  2.41412387167065E+00
(PID.TID 0000.0001)  ploadbar=  1.01194874542697E+05
 cg2d: Sum(rhs),rhsMax =  -4.16760164302990E+01  2.41704656817901E+00
(PID.TID 0000.0001)  ploadbar=  1.01194152226831E+05
 cg2d: Sum(rhs),rhsMax =  -4.16405426491066E+01  2.41974645786213E+00
(PID.TID 0000.0001)  ploadbar=  1.01193669507568E+05
 cg2d: Sum(rhs),rhsMax =  -4.16216529131897E+01  2.42156820429966E+00
(PID.TID 0000.0001)  ploadbar=  1.01193186788304E+05
 cg2d: Sum(rhs),rhsMax =  -4.16305257500323E+01  2.42185456133872E+00
(PID.TID 0000.0001)  ploadbar=  1.01192704069041E+05
 cg2d: Sum(rhs),rhsMax =  -4.16742824520854E+01  2.42018548900746E+00
(PID.TID 0000.0001)  ploadbar=  1.01192221349778E+05
 cg2d: Sum(rhs),rhsMax =  -4.17593047638395E+01  2.41619649293093E+00
(PID.TID 0000.0001)  ploadbar=  1.01191738630514E+05
 cg2d: Sum(rhs),rhsMax =  -4.18879664941495E+01  2.40976909455623E+00
(PID.TID 0000.0001)  ploadbar=  1.01191255911251E+05
 cg2d: Sum(rhs),rhsMax =  -4.20483060923982E+01  2.40158920832269E+00
(PID.TID 0000.0001)  ploadbar=  1.01190480163476E+05
 cg2d: Sum(rhs),rhsMax =  -4.22265198351617E+01  2.39247639753308E+00
(PID.TID 0000.0001)  ploadbar=  1.01189704415700E+05
 cg2d: Sum(rhs),rhsMax =  -4.24090970033978E+01  2.38321150554681E+00
(PID.TID 0000.0001)  ploadbar=  1.01188928667925E+05
 cg2d: Sum(rhs),rhsMax =  -4.25878002051663E+01  2.37425833973365E+00
(PID.TID 0000.0001)  ploadbar=  1.01188152920150E+05
 cg2d: Sum(rhs),rhsMax =  -4.27605074715870E+01  2.36572371148838E+00
(PID.TID 0000.0001)  ploadbar=  1.01187377172374E+05
 cg2d: Sum(rhs),rhsMax =  -4.29311874326792E+01  2.35737567011301E+00
(PID.TID 0000.0001)  ploadbar=  1.01186601424599E+05
 cg2d: Sum(rhs),rhsMax =  -4.31181143309928E+01  2.34825372354873E+00
(PID.TID 0000.0001)  ploadbar=  1.01185233255254E+05
 cg2d: Sum(rhs),rhsMax =  -4.33361936741808E+01  2.33757123075502E+00
(PID.TID 0000.0001)  ploadbar=  1.01183865085909E+05
 cg2d: Sum(rhs),rhsMax =  -4.35999363885739E+01  2.32459720046920E+00
(PID.TID 0000.0001)  ploadbar=  1.01182496916564E+05
 cg2d: Sum(rhs),rhsMax =  -4.39184653916753E+01  2.30892891303844E+00
(PID.TID 0000.0001)  ploadbar=  1.01181128747219E+05
 cg2d: Sum(rhs),rhsMax =  -4.42977430414067E+01  2.29036787580718E+00
(PID.TID 0000.0001)  ploadbar=  1.01179760577875E+05
 cg2d: Sum(rhs),rhsMax =  -4.42935832615654E+01  2.29181787480744E+00
(PID.TID 0000.0001)  ploadbar=  1.01178392408530E+05
 cg2d: Sum(rhs),rhsMax =  -4.42661385738477E+01  2.29441053174357E+00
(PID.TID 0000.0001)  ploadbar=  1.01177662541266E+05
 cg2d: Sum(rhs),rhsMax =  -4.42440546210374E+01  2.29665420805921E+00
(PID.TID 0000.0001)  ploadbar=  1.01176932674002E+05
 cg2d: Sum(rhs),rhsMax =  -4.42280974995375E+01  2.29850602633522E+00
(PID.TID 0000.0001)  ploadbar=  1.01176202806738E+05
 cg2d: Sum(rhs),rhsMax =  -4.42190922487461E+01  2.29992154045439E+00
(PID.TID 0000.0001)  ploadbar=  1.01175472939474E+05
 cg2d: Sum(rhs),rhsMax =  -4.42171179521589E+01  2.30088861622594E+00
(PID.TID 0000.0001)  ploadbar=  1.01174743072210E+05
 cg2d: Sum(rhs),rhsMax =  -4.42222646319448E+01  2.30139681167302E+00
(PID.TID 0000.0001)  ploadbar=  1.01174013204946E+05
 cg2d: Sum(rhs),rhsMax =  -4.42200105500885E+01  2.30232141556636E+00
(PID.TID 0000.0001)  ploadbar=  1.01173094553671E+05
 cg2d: Sum(rhs),rhsMax =  -4.42052353961865E+01  2.30392739682866E+00
(PID.TID 0000.0001)  ploadbar=  1.01172175902395E+05
 cg2d: Sum(rhs),rhsMax =  -4.41723904145380E+01  2.30650401860135E+00
(PID.TID 0000.0001)  ploadbar=  1.01171257251119E+05
 cg2d: Sum(rhs),rhsMax =  -4.41168917905427E+01  2.31029346272160E+00
(PID.TID 0000.0001)  ploadbar=  1.01170338599844E+05
 cg2d: Sum(rhs),rhsMax =  -4.40320126768673E+01  2.31565386121613E+00
(PID.TID 0000.0001)  ploadbar=  1.01169419948569E+05
 cg2d: Sum(rhs),rhsMax =  -4.39123508241697E+01  2.32288501745957E+00
(PID.TID 0000.0001)  ploadbar=  1.01168501297293E+05
 cg2d: Sum(rhs),rhsMax =  -4.37727109466030E+01  2.33121718285292E+00
(PID.TID 0000.0001)  ploadbar=  1.01167879865933E+05
 cg2d: Sum(rhs),rhsMax =  -4.36227261365016E+01  2.34015357691797E+00
(PID.TID 0000.0001)  ploadbar=  1.01167258434573E+05
 cg2d: Sum(rhs),rhsMax =  -4.34715294104946E+01  2.34921974671653E+00
(PID.TID 0000.0001)  ploadbar=  1.01166637003213E+05
 cg2d: Sum(rhs),rhsMax =  -4.33266891069518E+01  2.35800843895619E+00
(PID.TID 0000.0001)  ploadbar=  1.01166015571853E+05
 cg2d: Sum(rhs),rhsMax =  -4.31944536785165E+01  2.36616376481948E+00
(PID.TID 0000.0001)  ploadbar=  1.01165394140493E+05
 cg2d: Sum(rhs),rhsMax =  -4.30790244601329E+01  2.37343429804684E+00
(PID.TID 0000.0001)  ploadbar=  1.01164772709133E+05
 cg2d: Sum(rhs),rhsMax =  -4.29896677430782E+01  2.37938810358047E+00
(PID.TID 0000.0001)  ploadbar=  1.01163701663135E+05
 cg2d: Sum(rhs),rhsMax =  -4.29314020987745E+01  2.38373041978235E+00
(PID.TID 0000.0001)  ploadbar=  1.01162630617138E+05
 cg2d: Sum(rhs),rhsMax =  -4.29001890708573E+01  2.38666856061997E+00
(PID.TID 0000.0001)  ploadbar=  1.01161559571141E+05
 cg2d: Sum(rhs),rhsMax =  -4.28894895680542E+01  2.38855585905091E+00
(PID.TID 0000.0001)  ploadbar=  1.01160488525144E+05
 cg2d: Sum(rhs),rhsMax =  -4.29062222602520E+01  2.38900405759481E+00
(PID.TID 0000.0001)  ploadbar=  1.01159417479147E+05
 cg2d: Sum(rhs),rhsMax =  -4.29593092001049E+01  2.38751405565713E+00
(PID.TID 0000.0001)  ploadbar=  1.01158346433150E+05
 cg2d: Sum(rhs),rhsMax =  -4.30297720923832E+01  2.38497325202244E+00
(PID.TID 0000.0001)  ploadbar=  1.01157941499399E+05
 cg2d: Sum(rhs),rhsMax =  -4.31091955860011E+01  2.38185701400991E+00
(PID.TID 0000.0001)  ploadbar=  1.01157536565649E+05
 cg2d: Sum(rhs),rhsMax =  -4.31946750175799E+01  2.37833032728826E+00
(PID.TID 0000.0001)  ploadbar=  1.01157131631899E+05
 cg2d: Sum(rhs),rhsMax =  -4.32827361757488E+01  2.37458184745802E+00
(PID.TID 0000.0001)  ploadbar=  1.01156726698148E+05
 cg2d: Sum(rhs),rhsMax =  -4.33716320748374E+01  2.37070130621755E+00
(PID.TID 0000.0001)  ploadbar=  1.01156321764398E+05
 cg2d: Sum(rhs),rhsMax =  -4.34593240680017E+01  2.36679458609099E+00
(PID.TID 0000.0001)  ploadbar=  1.01155916830647E+05
 cg2d: Sum(rhs),rhsMax =  -4.35512121346315E+01  2.36273441854816E+00
(PID.TID 0000.0001)  ploadbar=  1.01155231917955E+05
 cg2d: Sum(rhs),rhsMax =  -4.36526708968791E+01  2.35823282879611E+00
(PID.TID 0000.0001)  ploadbar=  1.01154547005262E+05
 cg2d: Sum(rhs),rhsMax =  -4.37674244733266E+01  2.35309650777658E+00
(PID.TID 0000.0001)  ploadbar=  1.01153862092569E+05
 cg2d: Sum(rhs),rhsMax =  -4.38973220487592E+01  2.34723706042170E+00
(PID.TID 0000.0001)  ploadbar=  1.01153177179877E+05
 cg2d: Sum(rhs),rhsMax =  -4.40418460700956E+01  2.34069446684370E+00
(PID.TID 0000.0001)  ploadbar=  1.01152492267184E+05
 cg2d: Sum(rhs),rhsMax =  -4.41987213646056E+01  2.33360138385652E+00
(PID.TID 0000.0001)  ploadbar=  1.01151807354491E+05
 cg2d: Sum(rhs),rhsMax =  -4.48950648606241E+01  2.29858374841258E+00
(PID.TID 0000.0001)  ploadbar=  1.01151430280071E+05
 cg2d: Sum(rhs),rhsMax =  -4.56660516976706E+01  2.26091988390298E+00
(PID.TID 0000.0001)  ploadbar=  1.01151053205651E+05
 cg2d: Sum(rhs),rhsMax =  -4.62799405858977E+01  2.23203863132955E+00
(PID.TID 0000.0001)  ploadbar=  1.01150676131231E+05
 cg2d: Sum(rhs),rhsMax =  -4.61793935692013E+01  2.23798763435542E+00
(PID.TID 0000.0001)  ploadbar=  1.01150299056811E+05
 cg2d: Sum(rhs),rhsMax =  -4.60896793710099E+01  2.24340702675315E+00
(PID.TID 0000.0001)  ploadbar=  1.01149921982391E+05
 cg2d: Sum(rhs),rhsMax =  -4.60178028672369E+01  2.24793870642970E+00
(PID.TID 0000.0001)  ploadbar=  1.01149544907971E+05
 cg2d: Sum(rhs),rhsMax =  -4.59651523362534E+01  2.25157830586383E+00
(PID.TID 0000.0001)  ploadbar=  1.01150737770120E+05
 cg2d: Sum(rhs),rhsMax =  -4.59392948011650E+01  2.25394849008958E+00
(PID.TID 0000.0001)  ploadbar=  1.01151930632268E+05
 cg2d: Sum(rhs),rhsMax =  -4.59406440026143E+01  2.25502154709635E+00
(PID.TID 0000.0001)  ploadbar=  1.01153123494416E+05
(PID.TID 0000.0001) %CHECKPOINT     13111 ckptA
(PID.TID 0000.0001) 
(PID.TID 0000.0001) == cost_profiles: begin ==
(PID.TID 0000.0001) == cost_profiles: end   ==
(PID.TID 0000.0001) 
(PID.TID 0000.0001) gmsl          13     0.81179E-03    -0.15315E-03
(PID.TID 0000.0001) gmsl          14    -0.22353E-02    -0.10591E-02
(PID.TID 0000.0001) gmsl          15    -0.89193E-03     0.34667E-03
(PID.TID 0000.0001) gmsl          16     0.53759E-03     0.41801E-03
(PID.TID 0000.0001) gmsl          17     0.64356E-03     0.19030E-03
(PID.TID 0000.0001) gmsl          18     0.11343E-02     0.25727E-03
(PID.TID 0000.0001)  sshv4: use global mean of eta useEtaMean= F
(PID.TID 0000.0001)  sshv4:re-reference MDT= T
(PID.TID 0000.0001) mdt[start,end]date(1): 19930101,20171231
(PID.TID 0000.0001)   TP MDT yrrange:          1993,2017
(PID.TID 0000.0001)  --> f_gencost = 0.144977406664996E+08 1
(PID.TID 0000.0001)  --> f_gencost = 0.307014488941983E+06 2
(PID.TID 0000.0001)  --> f_gencost = 0.165892978850654E+07 3
(PID.TID 0000.0001)  --> f_gencost = 0.149964233450415E+05 4
(PID.TID 0000.0001)  --> f_gencost = 0.980758284544092E+05 5
(PID.TID 0000.0001)  --> f_gencost = 0.590486124865030E+06 7
(PID.TID 0000.0001)  --> f_gencost = 0.560603106812757E+06 8
(PID.TID 0000.0001)  --> f_gencost =                   NaN11
(PID.TID 0000.0001)  --> f_gencost = 0.450422746494381E+0612
(PID.TID 0000.0001)  --> f_gencost = 0.803459172965572E+0613
(PID.TID 0000.0001)  --> f_gencost = 0.115930733079993E+0715
(PID.TID 0000.0001)  --> f_gencost = 0.207552393231421E+0717
(PID.TID 0000.0001)  --> f_gencost = 0.248032044797513E+0718
(PID.TID 0000.0001)  --> f_gencost = 0.331517513954082E+0022
(PID.TID 0000.0001)  --> f_gencost = 0.125506300553574E+1127
(PID.TID 0000.0001)  --> f_genarr2d = 0.112316272108573E+00 1
(PID.TID 0000.0001)  --> f_genarr3d = 0.603915502546039E+04 1
(PID.TID 0000.0001)  --> f_genarr3d = 0.271902630686723E+04 2
(PID.TID 0000.0001)  --> f_genarr3d = 0.168301931515202E+05 3
(PID.TID 0000.0001)  --> f_genarr3d = 0.519422256503462E+04 4
(PID.TID 0000.0001)  --> f_genarr3d = 0.101631908524040E+05 5
(PID.TID 0000.0001)  --> f_genarr3d = 0.247466853841388E+01 6
(PID.TID 0000.0001)  --> f_genarr3d = 0.279378863819903E+02 7
(PID.TID 0000.0001)  --> fc               =                   NaN
(PID.TID 0000.0001)   early fc =  0.000000000000000E+00
(PID.TID 0000.0001)   local fc =  0.310649177226378E+04
(PID.TID 0000.0001)  global fc =                    NaN
(PID.TID 0000.0001)   Seconds in section "ALL                    [THE_MODEL_MAIN]":
(PID.TID 0000.0001)           User time: 6043.5699999999997
(PID.TID 0000.0001)         System time: 323.89000000000004
(PID.TID 0000.0001)     Wall clock time: 8103.3738341331482
(PID.TID 0000.0001)          No. starts: 1
(PID.TID 0000.0001)           No. stops: 1
(PID.TID 0000.0001)   Seconds in section "INITIALISE_FIXED       [THE_MODEL_MAIN]":
(PID.TID 0000.0001)           User time: 31.619999999999997
(PID.TID 0000.0001)         System time: 187.03
(PID.TID 0000.0001)     Wall clock time: 410.58222985267639
(PID.TID 0000.0001)          No. starts: 1
(PID.TID 0000.0001)           No. stops: 1
(PID.TID 0000.0001)   Seconds in section "THE_MAIN_LOOP          [THE_MODEL_MAIN]":
(PID.TID 0000.0001)           User time: 6011.9499999999998
(PID.TID 0000.0001)         System time: 136.86000000000001
(PID.TID 0000.0001)     Wall clock time: 7692.7913999557495
(PID.TID 0000.0001)          No. starts: 1
(PID.TID 0000.0001)           No. stops: 1
(PID.TID 0000.0001)   Seconds in section "INITIALISE_VARIA    [THE_MAIN_LOOP]":
(PID.TID 0000.0001)           User time: 101.43000000000001
(PID.TID 0000.0001)         System time: 1.1899999999999977
(PID.TID 0000.0001)     Wall clock time: 104.77977609634399
(PID.TID 0000.0001)          No. starts: 1
(PID.TID 0000.0001)           No. stops: 1
(PID.TID 0000.0001)   Seconds in section "MAIN LOOP           [THE_MAIN_LOOP]":
(PID.TID 0000.0001)           User time: 5910.5199999999995
(PID.TID 0000.0001)         System time: 135.67000000000002
(PID.TID 0000.0001)     Wall clock time: 7588.0115869045258
(PID.TID 0000.0001)          No. starts: 1
(PID.TID 0000.0001)           No. stops: 1
(PID.TID 0000.0001)   Seconds in section "COST_AVERAGESFIELDS [MAIN_DO_LOOP]":
(PID.TID 0000.0001)           User time: 126.29000000001088
(PID.TID 0000.0001)         System time: 6.2099999999961142
(PID.TID 0000.0001)     Wall clock time: 182.60362339019775
(PID.TID 0000.0001)          No. starts: 13110
(PID.TID 0000.0001)           No. stops: 13110
(PID.TID 0000.0001)   Seconds in section "PROFILES_INLOOP    [MAIN_DO_LOOP]":
(PID.TID 0000.0001)           User time: 222.6399999999976
(PID.TID 0000.0001)         System time: 0.23999999999989541
(PID.TID 0000.0001)     Wall clock time: 221.99639868736267
(PID.TID 0000.0001)          No. starts: 13110
(PID.TID 0000.0001)           No. stops: 13110
(PID.TID 0000.0001)   Seconds in section "MAIN_DO_LOOP        [THE_MAIN_LOOP]":
(PID.TID 0000.0001)           User time: 3431.2800000000648
(PID.TID 0000.0001)         System time: 64.419999999956815
(PID.TID 0000.0001)     Wall clock time: 4731.5335397720337
(PID.TID 0000.0001)          No. starts: 13110
(PID.TID 0000.0001)           No. stops: 13110
(PID.TID 0000.0001)   Seconds in section "FORWARD_STEP        [MAIN_DO_LOOP]":
(PID.TID 0000.0001)           User time: 3431.0600000000618
(PID.TID 0000.0001)         System time: 64.389999999956842
(PID.TID 0000.0001)     Wall clock time: 4731.3053014278412
(PID.TID 0000.0001)          No. starts: 13110
(PID.TID 0000.0001)           No. stops: 13110
(PID.TID 0000.0001)   Seconds in section "UPDATE_R_STAR       [FORWARD_STEP]":
(PID.TID 0000.0001)           User time: 13.080000000005839
(PID.TID 0000.0001)         System time: 0.45999999999958163
(PID.TID 0000.0001)     Wall clock time: 13.292624950408936
(PID.TID 0000.0001)          No. starts: 26220
(PID.TID 0000.0001)           No. stops: 26220
(PID.TID 0000.0001)   Seconds in section "DO_STATEVARS_DIAGS  [FORWARD_STEP]":
(PID.TID 0000.0001)           User time: 10.830000000002201
(PID.TID 0000.0001)         System time: 0.24999999999977263
(PID.TID 0000.0001)     Wall clock time: 10.540094137191772
(PID.TID 0000.0001)          No. starts: 39330
(PID.TID 0000.0001)           No. stops: 39330
(PID.TID 0000.0001)   Seconds in section "LOAD_FIELDS_DRIVER  [FORWARD_STEP]":
(PID.TID 0000.0001)           User time: 308.28999999996586
(PID.TID 0000.0001)         System time: 13.279999999990878
(PID.TID 0000.0001)     Wall clock time: 466.61094164848328
(PID.TID 0000.0001)          No. starts: 13110
(PID.TID 0000.0001)           No. stops: 13110
(PID.TID 0000.0001)   Seconds in section "EXF_GETFORCING     [LOAD_FLDS_DRIVER]":
(PID.TID 0000.0001)           User time: 307.12999999996964
(PID.TID 0000.0001)         System time: 13.199999999991064
(PID.TID 0000.0001)     Wall clock time: 465.37449860572815
(PID.TID 0000.0001)          No. starts: 13110
(PID.TID 0000.0001)           No. stops: 13110
(PID.TID 0000.0001)   Seconds in section "EXTERNAL_FLDS_LOAD [LOAD_FLDS_DRIVER]":
(PID.TID 0000.0001)           User time: 5.00000000006366463E-2
(PID.TID 0000.0001)         System time: 0.
(PID.TID 0000.0001)     Wall clock time: 0.11161160469055176
(PID.TID 0000.0001)          No. starts: 13110
(PID.TID 0000.0001)           No. stops: 13110
(PID.TID 0000.0001)   Seconds in section "CTRL_MAP_FORCING  [FORWARD_STEP]":
(PID.TID 0000.0001)           User time: 14.020000000004075
(PID.TID 0000.0001)         System time: 0.26999999999975444
(PID.TID 0000.0001)     Wall clock time: 13.709100246429443
(PID.TID 0000.0001)          No. starts: 13110
(PID.TID 0000.0001)           No. stops: 13110
(PID.TID 0000.0001)   Seconds in section "DO_ATMOSPHERIC_PHYS [FORWARD_STEP]":
(PID.TID 0000.0001)           User time: 1.6899999999991451
(PID.TID 0000.0001)         System time: 5.00000000000682121E-2
(PID.TID 0000.0001)     Wall clock time: 1.5929930210113525
(PID.TID 0000.0001)          No. starts: 13110
(PID.TID 0000.0001)           No. stops: 13110
(PID.TID 0000.0001)   Seconds in section "DO_OCEANIC_PHYS     [FORWARD_STEP]":
(PID.TID 0000.0001)           User time: 591.08000000002585
(PID.TID 0000.0001)         System time: 1.9099999999992292
(PID.TID 0000.0001)     Wall clock time: 592.98603129386902
(PID.TID 0000.0001)          No. starts: 13110
(PID.TID 0000.0001)           No. stops: 13110
(PID.TID 0000.0001)   Seconds in section "SEAICE_MODEL    [DO_OCEANIC_PHYS]":
(PID.TID 0000.0001)           User time: 277.94000000000096
(PID.TID 0000.0001)         System time: 1.5099999999992519
(PID.TID 0000.0001)     Wall clock time: 280.04353308677673
(PID.TID 0000.0001)          No. starts: 13110
(PID.TID 0000.0001)           No. stops: 13110
(PID.TID 0000.0001)   Seconds in section "SEAICE_DYNSOLVER   [SEAICE_MODEL]":
(PID.TID 0000.0001)           User time: 259.81000000000904
(PID.TID 0000.0001)         System time: 1.249999999999261
(PID.TID 0000.0001)     Wall clock time: 262.08341073989868
(PID.TID 0000.0001)          No. starts: 13110
(PID.TID 0000.0001)           No. stops: 13110
(PID.TID 0000.0001)   Seconds in section "GGL90_CALC [DO_OCEANIC_PHYS]":
(PID.TID 0000.0001)           User time: 63.419999999990523
(PID.TID 0000.0001)         System time: 0.10000000000002274
(PID.TID 0000.0001)     Wall clock time: 62.666129589080811
(PID.TID 0000.0001)          No. starts: 13110
(PID.TID 0000.0001)           No. stops: 13110
(PID.TID 0000.0001)   Seconds in section "DYNAMICS            [FORWARD_STEP]":
(PID.TID 0000.0001)           User time: 284.65999999998894
(PID.TID 0000.0001)         System time: 0.14999999999986358
(PID.TID 0000.0001)     Wall clock time: 285.31368446350098
(PID.TID 0000.0001)          No. starts: 13110
(PID.TID 0000.0001)           No. stops: 13110
(PID.TID 0000.0001)   Seconds in section "UPDATE_CG2D         [FORWARD_STEP]":
(PID.TID 0000.0001)           User time: 15.470000000000709
(PID.TID 0000.0001)         System time: 3.0000000000086402E-2
(PID.TID 0000.0001)     Wall clock time: 15.354595184326172
(PID.TID 0000.0001)          No. starts: 13110
(PID.TID 0000.0001)           No. stops: 13110
(PID.TID 0000.0001)   Seconds in section "SOLVE_FOR_PRESSURE  [FORWARD_STEP]":
(PID.TID 0000.0001)           User time: 823.56999999997061
(PID.TID 0000.0001)         System time: 2.7699999999987313
(PID.TID 0000.0001)     Wall clock time: 827.17640042304993
(PID.TID 0000.0001)          No. starts: 13110
(PID.TID 0000.0001)           No. stops: 13110
(PID.TID 0000.0001)   Seconds in section "MOM_CORRECTION_STEP [FORWARD_STEP]":
(PID.TID 0000.0001)           User time: 4.169999999999618
(PID.TID 0000.0001)         System time: 8.99999999999181455E-2
(PID.TID 0000.0001)     Wall clock time: 4.0523874759674072
(PID.TID 0000.0001)          No. starts: 13110
(PID.TID 0000.0001)           No. stops: 13110
(PID.TID 0000.0001)   Seconds in section "INTEGR_CONTINUITY   [FORWARD_STEP]":
(PID.TID 0000.0001)           User time: 7.4400000000009641
(PID.TID 0000.0001)         System time: 5.99999999999454303E-2
(PID.TID 0000.0001)     Wall clock time: 7.5589771270751953
(PID.TID 0000.0001)          No. starts: 13110
(PID.TID 0000.0001)           No. stops: 13110
(PID.TID 0000.0001)   Seconds in section "CALC_R_STAR         [FORWARD_STEP]":
(PID.TID 0000.0001)           User time: 2.759999999997035
(PID.TID 0000.0001)         System time: 2.99999999999727152E-2
(PID.TID 0000.0001)     Wall clock time: 2.9474411010742187
(PID.TID 0000.0001)          No. starts: 13110
(PID.TID 0000.0001)           No. stops: 13110
(PID.TID 0000.0001)   Seconds in section "BLOCKING_EXCHANGES  [FORWARD_STEP]":
(PID.TID 0000.0001)           User time: 76.059999999981756
(PID.TID 0000.0001)         System time: 0.32999999999975671
(PID.TID 0000.0001)     Wall clock time: 76.137855052947998
(PID.TID 0000.0001)          No. starts: 26220
(PID.TID 0000.0001)           No. stops: 26220
(PID.TID 0000.0001)   Seconds in section "THERMODYNAMICS      [FORWARD_STEP]":
(PID.TID 0000.0001)           User time: 318.24999999999682
(PID.TID 0000.0001)         System time: 8.00000000000409273E-2
(PID.TID 0000.0001)     Wall clock time: 318.60232400894165
(PID.TID 0000.0001)          No. starts: 13110
(PID.TID 0000.0001)           No. stops: 13110
(PID.TID 0000.0001)   Seconds in section "TRC_CORRECTION_STEP [FORWARD_STEP]":
(PID.TID 0000.0001)           User time: 0.1499999999996362
(PID.TID 0000.0001)         System time: 0.
(PID.TID 0000.0001)     Wall clock time: 0.11593365669250488
(PID.TID 0000.0001)          No. starts: 13110
(PID.TID 0000.0001)           No. stops: 13110
(PID.TID 0000.0001)   Seconds in section "DO_STATEVARS_TAVE   [FORWARD_STEP]":
(PID.TID 0000.0001)           User time: 7.99999999999272404E-2
(PID.TID 0000.0001)         System time: 0.
(PID.TID 0000.0001)     Wall clock time: 0.11552309989929199
(PID.TID 0000.0001)          No. starts: 13110
(PID.TID 0000.0001)           No. stops: 13110
(PID.TID 0000.0001)   Seconds in section "MONITOR             [FORWARD_STEP]":
(PID.TID 0000.0001)           User time: 0.17000000000007276
(PID.TID 0000.0001)         System time: 0.
(PID.TID 0000.0001)     Wall clock time: 0.21543598175048828
(PID.TID 0000.0001)          No. starts: 13110
(PID.TID 0000.0001)           No. stops: 13110
(PID.TID 0000.0001)   Seconds in section "COST_TILE           [FORWARD_STEP]":
(PID.TID 0000.0001)           User time: 0.12999999999965439
(PID.TID 0000.0001)         System time: 0.
(PID.TID 0000.0001)     Wall clock time: 0.11614751815795898
(PID.TID 0000.0001)          No. starts: 13110
(PID.TID 0000.0001)           No. stops: 13110
(PID.TID 0000.0001)   Seconds in section "DO_THE_MODEL_IO     [FORWARD_STEP]":
(PID.TID 0000.0001)           User time: 530.829999999949
(PID.TID 0000.0001)         System time: 43.619999999971867
(PID.TID 0000.0001)     Wall clock time: 1665.1000926494598
(PID.TID 0000.0001)          No. starts: 13110
(PID.TID 0000.0001)           No. stops: 13110
(PID.TID 0000.0001)   Seconds in section "DO_WRITE_PICKUP     [FORWARD_STEP]":
(PID.TID 0000.0001)           User time: 27.959999999999582
(PID.TID 0000.0001)         System time: 0.74999999999965894
(PID.TID 0000.0001)     Wall clock time: 28.765497446060181
(PID.TID 0000.0001)          No. starts: 13110
(PID.TID 0000.0001)           No. stops: 13110
(PID.TID 0000.0001)   Seconds in section "COST_AVERAGESFIELDS [THE_MAIN_LOOP]":
(PID.TID 0000.0001)           User time: 1.6900000000000546
(PID.TID 0000.0001)         System time: 3.99999999999636202E-2
(PID.TID 0000.0001)     Wall clock time: 1.7503950595855713
(PID.TID 0000.0001)          No. starts: 1
(PID.TID 0000.0001)           No. stops: 1
(PID.TID 0000.0001)   Seconds in section "PROFILES_INLOOP    [THE_MAIN_LOOP]":
(PID.TID 0000.0001)           User time: 1.99999999999818101E-2
(PID.TID 0000.0001)         System time: 0.
(PID.TID 0000.0001)     Wall clock time: 1.71010494232177734E-2
(PID.TID 0000.0001)          No. starts: 1
(PID.TID 0000.0001)           No. stops: 1
(PID.TID 0000.0001)   Seconds in section "ECCO_COST_DRIVER   [THE_MAIN_LOOP]":
(PID.TID 0000.0001)           User time: 2125.6400000000003
(PID.TID 0000.0001)         System time: 64.100000000000023
(PID.TID 0000.0001)     Wall clock time: 2442.8915278911591
(PID.TID 0000.0001)          No. starts: 1
(PID.TID 0000.0001)           No. stops: 1
(PID.TID 0000.0001)   Seconds in section "COST_GENCOST_ALL    [ECCO SPIN-DOWN]":
(PID.TID 0000.0001)           User time: 2120.6599999999999
(PID.TID 0000.0001)         System time: 63.960000000000036
(PID.TID 0000.0001)     Wall clock time: 2437.3883149623871
(PID.TID 0000.0001)          No. starts: 1
(PID.TID 0000.0001)           No. stops: 1
(PID.TID 0000.0001)   Seconds in section "CTRL_COST_DRIVER [ECCO SPIN-DOWN]":
(PID.TID 0000.0001)           User time: 4.9800000000004729
(PID.TID 0000.0001)         System time: 0.13999999999998636
(PID.TID 0000.0001)     Wall clock time: 5.5031828880310059
(PID.TID 0000.0001)          No. starts: 1
(PID.TID 0000.0001)           No. stops: 1
(PID.TID 0000.0001)   Seconds in section "COST_FINAL         [ADJOINT SPIN-DOWN]":
(PID.TID 0000.0001)           User time: 1.99999999995270628E-2
(PID.TID 0000.0001)         System time: 0.
(PID.TID 0000.0001)     Wall clock time: 2.66809463500976562E-2
(PID.TID 0000.0001)          No. starts: 1
(PID.TID 0000.0001)           No. stops: 1
(PID.TID 0000.0001) // ======================================================
(PID.TID 0000.0001) // Tile <-> Tile communication statistics
(PID.TID 0000.0001) // ======================================================
(PID.TID 0000.0001) // o Tile number: 000001
(PID.TID 0000.0001) //         No. X exchanges =              0
(PID.TID 0000.0001) //            Max. X spins =              0
(PID.TID 0000.0001) //            Min. X spins =     1000000000
(PID.TID 0000.0001) //          Total. X spins =              0
(PID.TID 0000.0001) //            Avg. X spins =       0.00E+00
(PID.TID 0000.0001) //         No. Y exchanges =              0
(PID.TID 0000.0001) //            Max. Y spins =              0
(PID.TID 0000.0001) //            Min. Y spins =     1000000000
(PID.TID 0000.0001) //          Total. Y spins =              0
(PID.TID 0000.0001) //            Avg. Y spins =       0.00E+00
(PID.TID 0000.0001) // o Thread number: 000001
(PID.TID 0000.0001) //            No. barriers =       45833008
(PID.TID 0000.0001) //      Max. barrier spins =              0
(PID.TID 0000.0001) //      Min. barrier spins =     1000000000
(PID.TID 0000.0001) //     Total barrier spins =              0
(PID.TID 0000.0001) //      Avg. barrier spins =       0.00E+00
PROGRAM MAIN: Execution ended Normally
